2W1C_L0C_A_1391_
     RDKit          3D

 53 57  0  0  0  0  0  0  0  0999 V2000
    8.2320   28.0410    0.9670 F   0  0  0  0  0  0  0  0  0  0  0  0
    7.6790   28.2390    2.1790 C   0  0  0  0  0  0  0  0  0  0  0  0
    7.2850   29.5100    2.5350 C   0  0  0  0  0  0  0  0  0  0  0  0
    6.7180   29.7170    3.7750 C   0  0  0  0  0  0  0  0  0  0  0  0
    6.5460   28.6450    4.6610 C   0  0  0  0  0  0  0  0  0  0  0  0
    6.9550   27.3650    4.2790 C   0  0  0  0  0  0  0  0  0  0  0  0
    7.5210   27.1640    3.0360 C   0  0  0  0  0  0  0  0  0  0  0  0
    5.9350   28.8770    6.0060 C   0  0  0  0  0  0  0  0  0  0  0  0
    5.9010   27.9960    6.8440 O   0  0  0  0  0  0  0  0  0  0  0  0
    5.4400   30.1110    6.2180 N   0  0  0  0  0  0  0  0  0  0  0  0
    4.9940   30.6220    7.3960 C   0  0  0  0  0  0  0  0  0  0  0  0
    5.2970   30.2530    8.6510 C   0  0  0  0  0  0  0  0  0  0  0  0
    4.6070   31.0620    9.4760 N   0  0  0  0  0  0  0  0  0  0  0  0
    3.8600   31.9520    8.7920 N   0  0  0  0  0  0  0  0  0  0  0  0
    4.1040   31.6830    7.5180 C   0  0  0  0  0  0  0  0  0  0  0  0
    3.4470   32.4560    6.4890 C   0  0  0  0  0  0  0  0  0  0  0  0
    3.7560   32.4690    5.1890 N   0  0  0  0  0  0  0  0  0  0  0  0
    2.8780   33.3290    4.5670 C   0  0  0  0  0  0  0  0  0  0  0  0
    2.7460   33.7180    3.2450 C   0  0  0  0  0  0  0  0  0  0  0  0
    1.7590   34.6160    2.8800 C   0  0  0  0  0  0  0  0  0  0  0  0
    0.8880   35.1420    3.8380 C   0  0  0  0  0  0  0  0  0  0  0  0
   -0.2070   36.1130    3.4610 C   0  0  0  0  0  0  0  0  0  0  0  0
    0.2640   37.3580    2.7690 N   0  0  0  0  0  0  0  0  0  0  0  0
   -0.8890   38.1610    2.2580 C   0  0  0  0  0  0  0  0  0  0  0  0
   -0.3830   39.4270    1.5880 C   0  0  0  0  0  0  0  0  0  0  0  0
    0.5230   39.1190    0.5140 O   0  0  0  0  0  0  0  0  0  0  0  0
    1.6480   38.3630    1.0030 C   0  0  0  0  0  0  0  0  0  0  0  0
    1.2000   37.0610    1.6460 C   0  0  0  0  0  0  0  0  0  0  0  0
    1.0360   34.7350    5.1580 C   0  0  0  0  0  0  0  0  0  0  0  0
    2.0230   33.8390    5.5220 C   0  0  0  0  0  0  0  0  0  0  0  0
    2.3950   33.2810    6.7000 N   0  0  0  0  0  0  0  0  0  0  0  0
    4.6140   31.0470   10.3260 H   0  0  0  0  0  0  0  0  0  0  0  0
    0.7090   37.8630    3.3750 H   0  0  0  0  0  0  0  0  0  0  0  0
    2.0060   33.4340    7.4890 H   0  0  0  0  0  0  0  0  0  0  0  0
    7.4020   30.2350    1.9290 H   0  0  0  0  0  0  0  0  0  0  0  0
    6.4390   30.5940    4.0350 H   0  0  0  0  0  0  0  0  0  0  0  0
    6.8420   26.6350    4.8780 H   0  0  0  0  0  0  0  0  0  0  0  0
    7.7980   26.3070    2.7730 H   0  0  0  0  0  0  0  0  0  0  0  0
    5.3960   30.6930    5.4610 H   0  0  0  0  0  0  0  0  0  0  0  0
    5.8830   29.5610    8.9320 H   0  0  0  0  0  0  0  0  0  0  0  0
    3.3390   33.3670    2.5890 H   0  0  0  0  0  0  0  0  0  0  0  0
    1.6720   34.8760    1.9790 H   0  0  0  0  0  0  0  0  0  0  0  0
   -0.8310   35.6700    2.8760 H   0  0  0  0  0  0  0  0  0  0  0  0
   -0.6890   36.3810    4.2680 H   0  0  0  0  0  0  0  0  0  0  0  0
   -1.3980   37.6210    1.6180 H   0  0  0  0  0  0  0  0  0  0  0  0
   -1.4710   38.3870    3.0070 H   0  0  0  0  0  0  0  0  0  0  0  0
   -1.1420   39.9310    1.2290 H   0  0  0  0  0  0  0  0  0  0  0  0
    0.0800   39.9860    2.2500 H   0  0  0  0  0  0  0  0  0  0  0  0
    2.2500   38.1680    0.2550 H   0  0  0  0  0  0  0  0  0  0  0  0
    2.1360   38.9040    1.6630 H   0  0  0  0  0  0  0  0  0  0  0  0
    1.9730   36.5710    1.9980 H   0  0  0  0  0  0  0  0  0  0  0  0
    0.7420   36.4990    0.9870 H   0  0  0  0  0  0  0  0  0  0  0  0
    0.4480   35.0790    5.8220 H   0  0  0  0  0  0  0  0  0  0  0  0
  1  2  1  0
  2  3  2  0
  3  4  1  0
  4  5  2  0
  5  6  1  0
  2  7  1  0
  6  7  2  0
  5  8  1  0
  8  9  2  0
  8 10  1  0
 10 11  1  0
 11 12  2  0
 12 13  1  0
 13 14  1  0
 11 15  1  0
 14 15  2  0
 15 16  1  0
 16 17  2  0
 17 18  1  0
 18 19  2  0
 19 20  1  0
 20 21  2  0
 21 22  1  0
 22 23  1  0
 23 24  1  0
 24 25  1  0
 25 26  1  0
 26 27  1  0
 23 28  1  0
 27 28  1  0
 21 29  1  0
 18 30  1  0
 29 30  2  0
 16 31  1  0
 30 31  1  0
 13 32  1  0
 23 33  1  0
 31 34  1  0
  3 35  1  0
  4 36  1  0
  6 37  1  0
  7 38  1  0
 10 39  1  0
 12 40  1  0
 19 41  1  0
 20 42  1  0
 22 43  1  0
 22 44  1  0
 24 45  1  0
 24 46  1  0
 25 47  1  0
 25 48  1  0
 27 49  1  0
 27 50  1  0
 28 51  1  0
 28 52  1  0
 29 53  1  0
M  CHG  1  23   1
M  END
$$$$
