2W1D_L0D_A_1391_
     RDKit          3D

 22 24  0  0  0  0  0  0  0  0999 V2000
    4.7839   30.2042    8.6909 C   0  0  0  0  0  0  0  0  0  0  0  0
    4.5902   30.5351    7.4064 C   0  0  0  0  0  0  0  0  0  0  0  0
    3.8392   31.6731    7.3970 C   0  0  0  0  0  0  0  0  0  0  0  0
    3.5560   32.0548    8.6465 N   0  0  0  0  0  0  0  0  0  0  0  0
    4.1538   31.1308    9.4282 N   0  0  0  0  0  0  0  0  0  0  0  0
    3.3503   32.4272    6.2630 C   0  0  0  0  0  0  0  0  0  0  0  0
    3.5939   32.1633    4.9947 N   0  0  0  0  0  0  0  0  0  0  0  0
    2.9470   33.0970    4.2409 C   0  0  0  0  0  0  0  0  0  0  0  0
    2.8701   33.2866    2.8702 C   0  0  0  0  0  0  0  0  0  0  0  0
    2.1336   34.3304    2.3577 C   0  0  0  0  0  0  0  0  0  0  0  0
    1.4659   35.1916    3.2038 C   0  0  0  0  0  0  0  0  0  0  0  0
    1.5337   35.0140    4.5636 C   0  0  0  0  0  0  0  0  0  0  0  0
    2.2742   33.9662    5.0911 C   0  0  0  0  0  0  0  0  0  0  0  0
    2.5515   33.5138    6.3435 N   0  0  0  0  0  0  0  0  0  0  0  0
    4.1135   31.1693   10.2613 H   0  0  0  0  0  0  0  0  0  0  0  0
    2.2515   33.8741    7.0960 H   0  0  0  0  0  0  0  0  0  0  0  0
    5.2677   29.4673    9.0399 H   0  0  0  0  0  0  0  0  0  0  0  0
    4.9118   30.0719    6.6447 H   0  0  0  0  0  0  0  0  0  0  0  0
    3.3304   32.6919    2.2844 H   0  0  0  0  0  0  0  0  0  0  0  0
    2.0830   34.4575    1.4138 H   0  0  0  0  0  0  0  0  0  0  0  0
    0.9571   35.9125    2.8428 H   0  0  0  0  0  0  0  0  0  0  0  0
    1.0744   35.6097    5.1474 H   0  0  0  0  0  0  0  0  0  0  0  0
  1  2  2  0
  2  3  1  0
  3  4  2  0
  1  5  1  0
  4  5  1  0
  3  6  1  0
  6  7  2  0
  7  8  1  0
  8  9  2  0
  9 10  1  0
 10 11  2  0
 11 12  1  0
  8 13  1  0
 12 13  2  0
  6 14  1  0
 13 14  1  0
  5 15  1  0
 14 16  1  0
  1 17  1  0
  2 18  1  0
  9 19  1  0
 10 20  1  0
 11 21  1  0
 12 22  1  0
M  END
$$$$
