1PXP_CK8_A_500_A
     RDKit          3D

 23 25  0  0  0  0  0  0  0  0999 V2000
   25.8400   38.9330    7.6930 C   0  0  0  0  0  0  0  0  0  0  0  0
   24.8070   39.6250    7.1580 N   0  0  0  0  0  0  0  0  0  0  0  0
   24.6340   40.8890    7.5400 C   0  0  0  0  0  0  0  0  0  0  0  0
   25.4070   41.5310    8.4140 N   0  0  0  0  0  0  0  0  0  0  0  0
   26.4580   40.9120    8.9870 C   0  0  0  0  0  0  0  0  0  0  0  0
   26.7260   39.5300    8.6380 C   0  0  0  0  0  0  0  0  0  0  0  0
   27.2300   41.7030    9.9210 C   0  0  0  0  0  0  0  0  0  0  0  0
   28.4880   41.5580   10.5510 C   0  0  0  0  0  0  0  0  0  0  0  0
   28.8380   42.5880   11.3930 N   0  0  0  0  0  0  0  0  0  0  0  0
   27.8800   43.5160   11.4230 C   0  0  0  0  0  0  0  0  0  0  0  0
   26.5200   43.2120   10.4510 S   0  0  0  0  0  0  0  0  0  0  0  0
   29.4860   40.4140   10.4090 C   0  0  0  0  0  0  0  0  0  0  0  0
   27.9500   44.7810   12.2540 C   0  0  0  0  0  0  0  0  0  0  0  0
   23.5220   41.5710    6.9430 N   0  0  0  0  0  0  0  0  0  0  0  0
   22.9310   42.8980    7.0440 C   0  0  0  0  0  0  0  0  0  0  0  0
   23.4270   43.9110    7.9250 C   0  0  0  0  0  0  0  0  0  0  0  0
   22.8120   45.1810    7.9760 C   0  0  0  0  0  0  0  0  0  0  0  0
   21.6760   45.4890    7.1470 C   0  0  0  0  0  0  0  0  0  0  0  0
   21.1900   44.4540    6.2710 C   0  0  0  0  0  0  0  0  0  0  0  0
   21.8070   43.1830    6.2250 C   0  0  0  0  0  0  0  0  0  0  0  0
   21.0260   46.8450    7.1980 N   0  0  0  0  0  0  0  0  0  0  0  0
   19.8470   47.2080    6.3560 C   0  0  0  0  0  0  0  0  0  0  0  0
   21.5130   47.9360    8.0960 C   0  0  0  0  0  0  0  0  0  0  0  0
  1  2  2  0
  2  3  1  0
  3  4  2  0
  4  5  1  0
  1  6  1  0
  5  6  2  0
  5  7  1  0
  7  8  2  0
  8  9  1  0
  9 10  2  0
  7 11  1  0
 10 11  1  0
  8 12  1  0
 10 13  1  0
  3 14  1  0
 14 15  1  0
 15 16  2  0
 16 17  1  0
 17 18  2  0
 18 19  1  0
 15 20  1  0
 19 20  2  0
 18 21  1  0
 21 22  1  0
 21 23  1  0
M  END
$$$$
