1PXK_CK3_A_500_A
     RDKit          3D

 17 18  0  0  0  0  0  0  0  0999 V2000
   27.7430   45.0096   11.8956 C   0  0  0  0  0  0  0  0  0  0  0  0
   27.5527   43.7169   11.1304 C   0  0  0  0  0  0  0  0  0  0  0  0
   26.3230   43.5927    9.9547 S   0  0  0  0  0  0  0  0  0  0  0  0
   28.2977   42.6276   11.3080 N   0  0  0  0  0  0  0  0  0  0  0  0
   27.8705   41.6259   10.4664 C   0  0  0  0  0  0  0  0  0  0  0  0
   28.6215   40.3007   10.5352 C   0  0  0  0  0  0  0  0  0  0  0  0
   26.8046   41.9548    9.6280 C   0  0  0  0  0  0  0  0  0  0  0  0
   26.0395   41.2463    8.6461 C   0  0  0  0  0  0  0  0  0  0  0  0
   25.1858   41.9342    7.8767 N   0  0  0  0  0  0  0  0  0  0  0  0
   26.1541   39.8442    8.4524 C   0  0  0  0  0  0  0  0  0  0  0  0
   25.3400   39.2541    7.4659 C   0  0  0  0  0  0  0  0  0  0  0  0
   24.5095   39.9898    6.7392 N   0  0  0  0  0  0  0  0  0  0  0  0
   24.4826   41.2974    6.9637 C   0  0  0  0  0  0  0  0  0  0  0  0
   23.5979   42.1448    6.2162 N   0  0  0  0  0  0  0  0  0  0  0  0
   22.5811   43.0191    6.6893 C   0  0  0  0  0  0  0  0  0  0  0  0
   21.8713   43.7066    5.8949 N   0  0  0  0  0  0  0  0  0  0  0  0
   21.9161   43.7480    4.5833 O   0  0  0  0  0  0  0  0  0  0  0  0
  1  2  1  0
  2  3  1  0
  2  4  2  0
  4  5  1  0
  5  6  1  0
  3  7  1  0
  5  7  2  0
  7  8  1  0
  8  9  2  0
  8 10  1  0
 10 11  2  0
 11 12  1  0
  9 13  1  0
 12 13  2  0
 13 14  1  0
 14 15  1  0
 15 16  2  3
 16 17  1  0
M  END
$$$$
