3RZ8_RZ8_A_262_
     RDKit          3D

 19 19  0  0  0  0  0  0  0  0999 V2000
   15.0748    0.9627   16.8683 S   0  0  0  0  0  0  0  0  0  0  0  0
   18.5293    5.6309   13.4411 N   0  0  0  0  0  0  0  0  0  0  0  0
   16.5646    6.6912   13.5562 O   0  0  0  0  0  0  0  0  0  0  0  0
   16.7055    4.5572   14.6123 C   0  0  0  0  0  0  0  0  0  0  0  0
   14.8215    3.3400   15.5404 C   0  0  0  0  0  0  0  0  0  0  0  0
   15.3082    4.4259   14.8199 C   0  0  0  0  0  0  0  0  0  0  0  0
   15.6860    2.3117   16.0629 C   0  0  0  0  0  0  0  0  0  0  0  0
   17.5851    3.5282   15.0288 C   0  0  0  0  0  0  0  0  0  0  0  0
   17.0665    2.4686   15.7851 C   0  0  0  0  0  0  0  0  0  0  0  0
   17.2663    5.6945   13.8364 C   0  0  0  0  0  0  0  0  0  0  0  0
   19.0899    6.7057   12.5967 C   0  0  0  0  0  0  0  0  0  0  0  0
   13.6349    1.0108   16.6986 O   0  0  0  0  0  0  0  0  0  0  0  0
   20.2508    7.2026   13.3855 C   0  0  0  0  0  0  0  0  0  0  0  0
   15.6216    1.0359   18.2079 O   0  0  0  0  0  0  0  0  0  0  0  0
   19.7581    8.3090   14.2696 C   0  0  0  0  0  0  0  0  0  0  0  0
   15.7111   -0.2796   16.1721 N   0  0  0  0  0  0  0  0  0  0  0  0
   19.9881    9.5345   13.4100 C   0  0  0  0  0  0  0  0  0  0  0  0
   19.4828   10.7845   14.0971 C   0  0  0  0  0  0  0  0  0  0  0  0
   19.2636   11.9210   13.1030 C   0  0  0  0  0  0  0  0  0  0  0  0
  4  6  2  0
  5  6  1  0
  1  7  1  0
  5  7  2  0
  4  8  1  0
  7  9  1  0
  8  9  2  0
  2 10  1  0
  3 10  2  0
  4 10  1  0
  2 11  1  0
  1 12  2  0
 11 13  1  0
  1 14  2  0
 13 15  1  0
  1 16  1  0
 15 17  1  0
 17 18  1  0
 18 19  1  0
M  END
$$$$
