4AN9_2P7_A_1384_
     RDKit          3D

 24 26  0  0  0  0  0  0  0  0999 V2000
   65.2977  -13.1204   11.7102 C   0  0  0  0  0  0  0  0  0  0  0  0
   65.8624  -13.4214   12.9518 C   0  0  0  0  0  0  0  0  0  0  0  0
   66.5450  -14.6270   13.1625 C   0  0  0  0  0  0  0  0  0  0  0  0
   66.6688  -15.5811   12.1531 C   0  0  0  0  0  0  0  0  0  0  0  0
   66.1044  -15.2757   10.9313 C   0  0  0  0  0  0  0  0  0  0  0  0
   65.4419  -14.0856   10.7065 C   0  0  0  0  0  0  0  0  0  0  0  0
   64.6134  -11.9424   11.4640 N   0  0  0  0  0  0  0  0  0  0  0  0
   64.3470  -10.9053   12.3397 C   0  0  0  0  0  0  0  0  0  0  0  0
   63.0695  -10.2977   12.5060 C   0  0  0  0  0  0  0  0  0  0  0  0
   62.8847   -9.2571   13.3955 C   0  0  0  0  0  0  0  0  0  0  0  0
   63.9762   -8.7738   14.1138 C   0  0  0  0  0  0  0  0  0  0  0  0
   65.2466   -9.3331   13.9483 C   0  0  0  0  0  0  0  0  0  0  0  0
   65.4062  -10.4005   13.0518 C   0  0  0  0  0  0  0  0  0  0  0  0
   61.8718  -10.8034   11.7522 C   0  0  0  0  0  0  0  0  0  0  0  0
   60.5819  -10.7727   12.2883 N   0  0  0  0  0  0  0  0  0  0  0  0
   62.1896  -11.2605   10.6428 O   0  0  0  0  0  0  0  0  0  0  0  0
   58.7236  -10.7754   13.1370 C   0  0  0  0  0  0  0  0  0  0  0  0
   60.1045  -10.2887   13.5849 C   0  0  0  0  0  0  0  0  0  0  0  0
   58.2803  -11.8243   14.0241 O   0  0  0  0  0  0  0  0  0  0  0  0
   67.7269  -17.4219   12.4380 I   0  0  0  0  0  0  0  0  0  0  0  0
   59.2598  -11.2213   11.7779 C   0  0  0  0  0  0  0  0  0  0  0  0
   64.9280  -13.8968    9.4756 F   0  0  0  0  0  0  0  0  0  0  0  0
   66.5922  -10.9810   12.8314 F   0  0  0  0  0  0  0  0  0  0  0  0
   66.2902   -8.8280   14.6660 F   0  0  0  0  0  0  0  0  0  0  0  0
  1  2  2  0
  2  3  1  0
  3  4  2  0
  4  5  1  0
  5  6  2  0
  1  6  1  0
  1  7  1  0
  7  8  1  0
  8  9  1  0
  9 10  2  0
 10 11  1  0
 11 12  2  0
  8 13  2  0
 12 13  1  0
  9 14  1  0
 14 15  1  0
 14 16  2  0
 15 18  1  0
 17 18  1  0
 17 19  1  0
  4 20  1  0
 15 21  1  0
 17 21  1  0
  6 22  1  0
 13 23  1  0
 12 24  1  0
M  END
$$$$
