3ORN_3OR_A_400_
     RDKit          3D

 32 34  0  0  0  0  0  0  0  0999 V2000
   63.2020  -10.3750   12.1980 C   0  0  0  0  0  0  0  0  0  0  0  0
   62.7070   -9.2750   12.9850 C   0  0  0  0  0  0  0  0  0  0  0  0
   63.5440   -8.6020   13.9300 C   0  0  0  0  0  0  0  0  0  0  0  0
   63.0220   -7.4480   14.7550 C   0  0  0  0  0  0  0  0  0  0  0  0
   66.2710  -13.4810   13.1570 C   0  0  0  0  0  0  0  0  0  0  0  0
   66.9860  -15.6560   12.3360 C   0  0  0  0  0  0  0  0  0  0  0  0
   66.4540  -15.3600   11.0560 C   0  0  0  0  0  0  0  0  0  0  0  0
   60.6750   -7.3690   15.6480 C   0  0  0  0  0  0  0  0  0  0  0  0
   59.7150   -7.8790   16.7060 C   0  0  0  0  0  0  0  0  0  0  0  0
   61.4480   -9.5670   17.2880 C   0  0  0  0  0  0  0  0  0  0  0  0
   62.2880  -11.0650   11.2070 C   0  0  0  0  0  0  0  0  0  0  0  0
   64.5840  -10.8160   12.3620 C   0  0  0  0  0  0  0  0  0  0  0  0
   65.0870  -11.9010   11.5980 N   0  0  0  0  0  0  0  0  0  0  0  0
   65.7210  -13.1330   11.8830 C   0  0  0  0  0  0  0  0  0  0  0  0
   61.9780   -7.8370   15.6940 N   0  0  0  0  0  0  0  0  0  0  0  0
   64.8810   -9.0390   14.0760 C   0  0  0  0  0  0  0  0  0  0  0  0
   65.6960   -8.4330   14.9530 F   0  0  0  0  0  0  0  0  0  0  0  0
   65.3850  -10.1090   13.3150 C   0  0  0  0  0  0  0  0  0  0  0  0
   66.6600  -10.4470   13.5200 F   0  0  0  0  0  0  0  0  0  0  0  0
   66.8960  -14.7220   13.3860 C   0  0  0  0  0  0  0  0  0  0  0  0
   67.9160  -17.4640   12.6920 I   0  0  0  0  0  0  0  0  0  0  0  0
   65.8290  -14.1020   10.8500 C   0  0  0  0  0  0  0  0  0  0  0  0
   65.3270  -13.8240    9.6360 F   0  0  0  0  0  0  0  0  0  0  0  0
   60.2670   -6.5740   14.8050 O   0  0  0  0  0  0  0  0  0  0  0  0
   60.3800   -8.6290   17.8460 C   0  0  0  0  0  0  0  0  0  0  0  0
   62.4770   -8.7610   16.6730 O   0  0  0  0  0  0  0  0  0  0  0  0
   62.7720  -11.6680   10.2430 O   0  0  0  0  0  0  0  0  0  0  0  0
   60.9300  -10.9680   11.4230 N   0  0  0  0  0  0  0  0  0  0  0  0
   60.0980  -11.4020   10.3500 O   0  0  0  0  0  0  0  0  0  0  0  0
   59.3170  -10.3010    9.8520 C   0  0  0  0  0  0  0  0  0  0  0  0
   59.7110  -10.0420    8.4060 C   0  0  0  0  0  0  0  0  0  0  0  0
   59.2250  -11.0970    7.5950 O   0  0  0  0  0  0  0  0  0  0  0  0
  1  2  2  0
  2  3  1  0
  3  4  1  0
  6  7  1  0
  8  9  1  0
  1 11  1  0
  1 12  1  0
 12 13  1  0
  5 14  2  0
 13 14  1  0
  4 15  1  0
  8 15  1  0
  3 16  2  0
 16 17  1  0
 12 18  2  0
 16 18  1  0
 18 19  1  0
  5 20  1  0
  6 20  2  0
  6 21  1  0
  7 22  2  0
 14 22  1  0
 22 23  1  0
  8 24  2  0
  9 25  1  0
 10 25  1  0
 10 26  1  0
 15 26  1  0
 11 27  2  0
 11 28  1  0
 28 29  1  0
 29 30  1  0
 30 31  1  0
 31 32  1  0
M  END
$$$$
