3B28_B2X_A_237_
     RDKit          3D

 23 26  0  0  0  0  0  0  0  0999 V2000
  -23.9080   23.2670  -22.9890 C   0  0  0  0  0  0  0  0  0  0  0  0
  -24.5700   23.9950  -24.0910 O   0  0  0  0  0  0  0  0  0  0  0  0
  -25.5380   23.0720  -24.6350 C   0  0  0  0  0  0  0  0  0  0  0  0
  -26.5460   22.6340  -23.6990 C   0  0  0  0  0  0  0  0  0  0  0  0
  -27.8780   22.3890  -24.0700 C   0  0  0  0  0  0  0  0  0  0  0  0
  -28.8340   22.0500  -23.0900 C   0  0  0  0  0  0  0  0  0  0  0  0
  -28.4580   21.9560  -21.7480 C   0  0  0  0  0  0  0  0  0  0  0  0
  -27.1320   22.1980  -21.3490 C   0  0  0  0  0  0  0  0  0  0  0  0
  -26.1830   22.5640  -22.3360 C   0  0  0  0  0  0  0  0  0  0  0  0
  -24.8500   22.8500  -21.9760 C   0  0  0  0  0  0  0  0  0  0  0  0
  -24.4670   22.7890  -20.6430 C   0  0  0  0  0  0  0  0  0  0  0  0
  -25.3820   22.4130  -19.6680 C   0  0  0  0  0  0  0  0  0  0  0  0
  -24.7470   22.2560  -18.0450 Cl  0  0  0  0  0  0  0  0  0  0  0  0
  -26.7200   22.1360  -19.9860 C   0  0  0  0  0  0  0  0  0  0  0  0
  -27.6260   21.7480  -18.9440 C   0  0  0  0  0  0  0  0  0  0  0  0
  -28.2540   20.5590  -18.9950 N   0  0  0  0  0  0  0  0  0  0  0  0
  -27.8410   22.5450  -17.8770 N   0  0  0  0  0  0  0  0  0  0  0  0
  -28.6480   22.1580  -16.8690 C   0  0  0  0  0  0  0  0  0  0  0  0
  -28.8040   22.9630  -15.8310 N   0  0  0  0  0  0  0  0  0  0  0  0
  -29.2520   20.9640  -16.9110 N   0  0  0  0  0  0  0  0  0  0  0  0
  -29.0880   20.2340  -17.9880 C   0  0  0  0  0  0  0  0  0  0  0  0
  -29.8700   18.6920  -18.0000 S   0  0  0  0  0  0  0  0  0  0  0  0
  -29.7550   18.1800  -19.7110 C   0  0  0  0  0  0  0  0  0  0  0  0
  1  2  1  0
  2  3  1  0
  3  4  1  0
  4  5  2  0
  5  6  1  0
  6  7  2  0
  7  8  1  0
  4  9  1  0
  8  9  1  0
  1 10  1  0
  9 10  2  0
 10 11  1  0
 11 12  2  0
 12 13  1  0
  8 14  2  0
 12 14  1  0
 14 15  1  0
 15 16  2  0
 15 17  1  0
 17 18  2  0
 18 19  1  0
 18 20  1  0
 16 21  1  0
 20 21  2  0
 21 22  1  0
 22 23  1  0
M  END
$$$$
