3B27_B2T_A_1_
     RDKit          3D

 16 17  0  0  0  0  0  0  0  0999 V2000
  -29.9447   18.1918  -19.6111 C   0  0  0  0  0  0  0  0  0  0  0  0
  -29.9096   18.6781  -17.8776 S   0  0  0  0  0  0  0  0  0  0  0  0
  -29.1359   20.2388  -17.9096 C   0  0  0  0  0  0  0  0  0  0  0  0
  -28.3392   20.5947  -18.9317 N   0  0  0  0  0  0  0  0  0  0  0  0
  -29.2793   20.9868  -16.8208 N   0  0  0  0  0  0  0  0  0  0  0  0
  -28.6886   22.1924  -16.7654 C   0  0  0  0  0  0  0  0  0  0  0  0
  -28.8098   22.9539  -15.6978 N   0  0  0  0  0  0  0  0  0  0  0  0
  -27.8720   22.5682  -17.7756 N   0  0  0  0  0  0  0  0  0  0  0  0
  -27.7009   21.7848  -18.8566 C   0  0  0  0  0  0  0  0  0  0  0  0
  -26.8484   22.2232  -19.8825 C   0  0  0  0  0  0  0  0  0  0  0  0
  -27.3594   22.3365  -21.1755 C   0  0  0  0  0  0  0  0  0  0  0  0
  -26.5006   22.7627  -22.2068 C   0  0  0  0  0  0  0  0  0  0  0  0
  -25.1608   23.0603  -21.9158 C   0  0  0  0  0  0  0  0  0  0  0  0
  -24.6416   22.9387  -20.6337 C   0  0  0  0  0  0  0  0  0  0  0  0
  -25.4973   22.5212  -19.6041 C   0  0  0  0  0  0  0  0  0  0  0  0
  -24.7904   22.3127  -18.0333 Cl  0  0  0  0  0  0  0  0  0  0  0  0
  1  2  1  0
  2  3  1  0
  3  4  2  0
  3  5  1  0
  5  6  2  0
  6  7  1  0
  6  8  1  0
  4  9  1  0
  8  9  2  0
  9 10  1  0
 10 11  2  0
 11 12  1  0
 12 13  2  0
 13 14  1  0
 10 15  1  0
 14 15  2  0
 15 16  1  0
M  END
$$$$
