2XX2_13C_D_1215_
     RDKit          3D

 23 24  0  0  0  0  0  0  0  0999 V2000
   19.1166    2.5707    5.8120 C   0  0  0  0  0  0  0  0  0  0  0  0
   19.0844    3.5359    4.6221 C   0  0  0  0  0  0  0  0  0  0  0  0
   19.9202    4.6474    4.6745 C   0  0  0  0  0  0  0  0  0  0  0  0
   19.9580    5.5586    3.6228 C   0  0  0  0  0  0  0  0  0  0  0  0
   19.1314    5.3321    2.5154 C   0  0  0  0  0  0  0  0  0  0  0  0
   18.2957    4.2179    2.4630 C   0  0  0  0  0  0  0  0  0  0  0  0
   18.2676    3.3109    3.5170 C   0  0  0  0  0  0  0  0  0  0  0  0
   17.3390    2.0876    3.4461 C   0  0  0  0  0  0  0  0  0  0  0  0
   15.8237    2.3645    3.4959 C   0  0  0  0  0  0  0  0  0  0  0  0
   14.8329    1.2304    3.2050 C   0  0  0  0  0  0  0  0  0  0  0  0
   14.3174    0.6813    4.5499 C   0  0  0  0  0  0  0  0  0  0  0  0
   13.3078    1.6776    5.1519 C   0  0  0  0  0  0  0  0  0  0  0  0
   13.3937    1.5892    6.6853 C   0  0  0  0  0  0  0  0  0  0  0  0
   14.7826    2.0675    7.1535 C   0  0  0  0  0  0  0  0  0  0  0  0
   15.6633    1.1625    7.9036 C   0  0  0  0  0  0  0  0  0  0  0  0
   16.8261    1.7288    8.7472 C   0  0  0  0  0  0  0  0  0  0  0  0
   18.1375    1.6591    7.9481 C   0  0  0  0  0  0  0  0  0  0  0  0
   20.0721    1.8582    5.9660 O   0  0  0  0  0  0  0  0  0  0  0  0
   20.7334    4.7966    5.8276 O   0  0  0  0  0  0  0  0  0  0  0  0
   19.1271    6.2363    1.4182 O   0  0  0  0  0  0  0  0  0  0  0  0
   17.3008    3.9700    1.0374 Cl  0  0  0  0  0  0  0  0  0  0  0  0
   18.0187    2.5411    6.7772 N   0  0  0  0  0  0  0  0  0  0  0  0
   15.4228    3.4618    3.7840 O   0  0  0  0  0  0  0  0  0  0  0  0
  1  2  1  0
  2  3  1  0
  3  4  2  0
  4  5  1  0
  5  6  2  0
  2  7  2  0
  6  7  1  0
  7  8  1  0
  8  9  1  0
  9 10  1  0
 10 11  1  0
 11 12  1  0
 12 13  1  0
 13 14  1  0
 14 15  2  3
 15 16  1  0
 16 17  1  0
  1 18  2  0
  3 19  1  0
  5 20  1  0
  6 21  1  0
  1 22  1  0
 17 22  1  0
  9 23  2  0
M  END
$$$$
