2XX5_13N_A_1215_
     RDKit          3D

 33 35  0  0  0  0  0  0  0  0999 V2000
   16.6050   -2.2540    0.8200 C   0  0  0  0  0  0  0  0  0  0  0  0
   17.6050   -2.2590   -0.1120 C   0  0  0  0  0  0  0  0  0  0  0  0
   17.8120   -1.1660   -0.8690 C   0  0  0  0  0  0  0  0  0  0  0  0
   16.9960   -0.0780   -0.6970 C   0  0  0  0  0  0  0  0  0  0  0  0
   16.0070   -0.0570    0.2250 C   0  0  0  0  0  0  0  0  0  0  0  0
   15.8070   -1.1580    0.9970 C   0  0  0  0  0  0  0  0  0  0  0  0
   14.7040   -1.1930    2.0300 C   0  0  0  0  0  0  0  0  0  0  0  0
   15.0020   -0.2860    3.1120 N   0  0  0  0  0  0  0  0  0  0  0  0
   14.3790    0.8510    3.2770 C   0  0  0  0  0  0  0  0  0  0  0  0
   13.5700    1.3280    2.5090 O   0  0  0  0  0  0  0  0  0  0  0  0
   14.8350    1.5750    4.4840 C   0  0  0  0  0  0  0  0  0  0  0  0
   13.6580    2.2200    5.1590 C   0  0  0  0  0  0  0  0  0  0  0  0
   13.0300    1.2240    6.0900 C   0  0  0  0  0  0  0  0  0  0  0  0
   13.7560    1.1390    7.3880 C   0  0  0  0  0  0  0  0  0  0  0  0
   15.0880    0.8370    7.2490 C   0  0  0  0  0  0  0  0  0  0  0  0
   15.8760    1.0920    8.3410 C   0  0  0  0  0  0  0  0  0  0  0  0
   17.2200    0.8510    8.3490 C   0  0  0  0  0  0  0  0  0  0  0  0
   18.0240    2.0770    8.0500 C   0  0  0  0  0  0  0  0  0  0  0  0
   17.9180    2.4960    6.6810 N   0  0  0  0  0  0  0  0  0  0  0  0
   19.0970    2.6000    5.8580 C   0  0  0  0  0  0  0  0  0  0  0  0
   20.1000    1.9960    6.1090 O   0  0  0  0  0  0  0  0  0  0  0  0
   19.0540    3.5090    4.6700 C   0  0  0  0  0  0  0  0  0  0  0  0
   19.9340    4.5660    4.6850 C   0  0  0  0  0  0  0  0  0  0  0  0
   20.7070    4.7190    5.7280 O   0  0  0  0  0  0  0  0  0  0  0  0
   19.9680    5.4340    3.6420 C   0  0  0  0  0  0  0  0  0  0  0  0
   19.1350    5.2350    2.5920 C   0  0  0  0  0  0  0  0  0  0  0  0
   19.1700    6.0630    1.5840 O   0  0  0  0  0  0  0  0  0  0  0  0
   18.2700    4.1600    2.5740 C   0  0  0  0  0  0  0  0  0  0  0  0
   17.2650    3.9730    1.2310 Cl  0  0  0  0  0  0  0  0  0  0  0  0
   18.2160    3.2790    3.6210 C   0  0  0  0  0  0  0  0  0  0  0  0
   17.2540    2.1120    3.6260 C   0  0  0  0  0  0  0  0  0  0  0  0
   15.8430    2.5820    4.0040 C   0  0  0  0  0  0  0  0  0  0  0  0
   15.5030    3.7240    3.8830 O   0  0  0  0  0  0  0  0  0  0  0  0
  1  2  2  0
  2  3  1  0
  3  4  2  0
  4  5  1  0
  1  6  1  0
  5  6  2  0
  6  7  1  0
  7  8  1  0
  8  9  1  0
  9 10  2  0
  9 11  1  0
 11 12  1  0
 12 13  1  0
 13 14  1  0
 14 15  1  0
 15 16  2  3
 16 17  1  0
 17 18  1  0
 18 19  1  0
 19 20  1  0
 20 21  2  0
 20 22  1  0
 22 23  2  0
 23 24  1  0
 23 25  1  0
 25 26  2  0
 26 27  1  0
 26 28  1  0
 28 29  1  0
 22 30  1  0
 28 30  2  0
 30 31  1  0
 11 32  1  0
 31 32  1  0
 32 33  2  0
M  END
$$$$
