2HDS_4MB_A_1601_
     RDKit          3D

 14 14  0  0  0  0  0  0  0  0999 V2000
   -2.0317    6.0518   70.6479 C   0  0  0  0  0  0  0  0  0  0  0  0
   -4.0678    6.8768   69.6996 C   0  0  0  0  0  0  0  0  0  0  0  0
   -0.1677    7.4612   71.0593 N   0  0  0  0  0  0  0  0  0  0  0  0
   -1.4671    7.2901   70.5962 C   0  0  0  0  0  0  0  0  0  0  0  0
   -3.3448    5.8595   70.2337 C   0  0  0  0  0  0  0  0  0  0  0  0
   -5.4604    6.7311   69.2081 C   0  0  0  0  0  0  0  0  0  0  0  0
   -3.4864    8.1639   69.6307 C   0  0  0  0  0  0  0  0  0  0  0  0
    1.0340    8.7508   69.0504 C   0  0  0  0  0  0  0  0  0  0  0  0
   -2.2040    8.3770   70.1131 C   0  0  0  0  0  0  0  0  0  0  0  0
   -6.0822    5.6655   69.5168 O   0  0  0  0  0  0  0  0  0  0  0  0
   -6.0115    7.6441   68.5349 O   0  0  0  0  0  0  0  0  0  0  0  0
    0.7919    8.7092   70.7582 S   0  0  0  0  0  0  0  0  0  0  0  0
    0.1457    9.9367   71.0925 O   0  0  0  0  0  0  0  0  0  0  0  0
    2.0486    8.4335   71.4230 O   0  0  0  0  0  0  0  0  0  0  0  0
  1  4  2  0
  3  4  1  0
  1  5  1  0
  2  5  2  0
  2  6  1  0
  2  7  1  0
  4  9  1  0
  7  9  2  0
  6 10  2  0
  6 11  1  0
  3 12  1  0
  8 12  1  0
 12 13  2  0
 12 14  2  0
M  END
$$$$
