1XGJ_HTC_B_888_
     RDKit          3D

 22 23  0  0  0  0  0  0  0  0999 V2000
   -2.0410    4.0630   74.7690 N   0  0  0  0  0  0  0  0  0  0  0  0
   -3.1970    5.3270   74.3680 S   0  0  0  0  0  0  0  0  0  0  0  0
   -3.1790    6.3040   75.3980 O   0  0  0  0  0  0  0  0  0  0  0  0
   -4.4940    4.7100   74.2770 O   0  0  0  0  0  0  0  0  0  0  0  0
   -2.8570    6.1540   72.7700 C   0  0  0  0  0  0  0  0  0  0  0  0
   -2.6380    7.5240   72.6130 C   0  0  0  0  0  0  0  0  0  0  0  0
   -2.4160    7.7940   71.2550 C   0  0  0  0  0  0  0  0  0  0  0  0
   -2.4930    6.5910   70.5430 S   0  0  0  0  0  0  0  0  0  0  0  0
   -2.7730    5.5450   71.5040 C   0  0  0  0  0  0  0  0  0  0  0  0
   -2.9430    4.0590   71.1970 C   0  0  0  0  0  0  0  0  0  0  0  0
   -2.8360    3.6580   70.0140 O   0  0  0  0  0  0  0  0  0  0  0  0
   -3.2060    3.1700   72.1780 O   0  0  0  0  0  0  0  0  0  0  0  0
   -0.7510    4.3990   75.2510 C   0  0  0  0  0  0  0  0  0  0  0  0
   -0.4840    4.3060   76.6580 C   0  0  0  0  0  0  0  0  0  0  0  0
    0.7880    4.6350   77.1790 C   0  0  0  0  0  0  0  0  0  0  0  0
    1.8340    5.0660   76.2880 C   0  0  0  0  0  0  0  0  0  0  0  0
    1.5850    5.1600   74.8620 C   0  0  0  0  0  0  0  0  0  0  0  0
    0.2860    4.8260   74.3370 C   0  0  0  0  0  0  0  0  0  0  0  0
   -1.4710    3.8950   77.5030 O   0  0  0  0  0  0  0  0  0  0  0  0
    3.1990    5.4220   76.8620 C   0  0  0  0  0  0  0  0  0  0  0  0
    4.1800    5.8170   76.0550 O   0  0  0  0  0  0  0  0  0  0  0  0
    3.4030    5.3480   78.0840 O   0  0  0  0  0  0  0  0  0  0  0  0
  1  2  1  0
  2  3  2  0
  2  4  2  0
  2  5  1  0
  5  6  1  0
  6  7  2  0
  7  8  1  0
  5  9  2  0
  8  9  1  0
  9 10  1  0
 10 11  1  0
 10 12  2  0
  1 13  1  0
 13 14  2  0
 14 15  1  0
 15 16  2  0
 16 17  1  0
 13 18  1  0
 17 18  2  0
 14 19  1  0
 16 20  1  0
 20 21  1  0
 20 22  2  0
M  END
$$$$
