1C5Z_BEN_B_251_
     RDKit          3D

 18 18  0  1  0  0  0  0  0  0999 V2000
    8.4360    0.8751   24.9776 C   0  0  0  0  0  0  0  0  0  0  0  0
    8.2931    2.0593   25.7311 C   0  0  0  0  0  0  0  0  0  0  0  0
    8.6223    3.3024   25.1950 C   0  0  0  0  0  0  0  0  0  0  0  0
    9.0990    3.3902   23.8948 C   0  0  0  0  0  0  0  0  0  0  0  0
    9.2524    2.2490   23.1305 C   0  0  0  0  0  0  0  0  0  0  0  0
    8.9251    1.0179   23.6664 C   0  0  0  0  0  0  0  0  0  0  0  0
    8.1023   -0.3863   25.5060 C   0  0  0  0  0  0  0  0  0  0  0  0
    7.4834   -0.4853   26.6636 N   0  0  0  0  0  0  0  0  0  0  0  0
    7.9262    2.0191   26.7446 H   0  0  0  0  0  0  0  0  0  0  0  0
    8.5039    4.1955   25.7909 H   0  0  0  0  0  0  0  0  0  0  0  0
    9.3552    4.3496   23.4738 H   0  0  0  0  0  0  0  0  0  0  0  0
    9.6280    2.3144   22.1196 H   0  0  0  0  0  0  0  0  0  0  0  0
    9.0653    0.1605   23.0400 H   0  0  0  0  0  0  0  0  0  0  0  0
    8.8956   -1.3916   23.9377 H   0  0  0  0  0  0  0  0  0  0  0  0
    7.2589    0.3427   27.1905 H   0  0  0  0  0  0  0  0  0  0  0  0
    7.1969   -1.3465   27.0672 H   0  0  0  0  0  0  0  0  0  0  0  0
    8.2293   -2.3792   25.1204 H   0  0  0  0  0  0  0  0  0  0  0  0
    8.4185   -1.4562   24.8263 N   0  0  0  0  0  0  0  0  0  0  0  0
  1  2  2  0
  2  3  1  0
  3  4  2  0
  4  5  1  0
  1  6  1  0
  5  6  2  0
  1  7  1  0
  7  8  1  0
  2  9  1  0
  3 10  1  0
  4 11  1  0
  5 12  1  0
  6 13  1  0
  8 15  1  0
  8 16  1  0
 18  7  2  0
 18 14  1  0
 18 17  1  0
M  CHG  1  18   1
V   18 [N&+]
M  STY  1   1 DAT
M  SAL   1  1  18
M  SED   1 [N&+]
M  END
$$$$
