2UWD_2GG_A_1228_
     RDKit          3D

 27 29  0  0  0  0  0  0  0  0999 V2000
   35.1100    5.6100   21.6240 C   0  0  0  0  0  0  0  0  0  0  0  0
   35.4350    6.2380   22.9030 O   0  0  0  0  0  0  0  0  0  0  0  0
   34.4180    6.7760   23.6490 C   0  0  0  0  0  0  0  0  0  0  0  0
   33.0590    6.7530   23.2680 C   0  0  0  0  0  0  0  0  0  0  0  0
   32.0940    7.3320   24.1290 C   0  0  0  0  0  0  0  0  0  0  0  0
   34.7730    7.3510   24.8900 C   0  0  0  0  0  0  0  0  0  0  0  0
   33.8030    7.9190   25.7240 C   0  0  0  0  0  0  0  0  0  0  0  0
   32.4480    7.9140   25.3780 C   0  0  0  0  0  0  0  0  0  0  0  0
   31.4680    8.5170   26.2370 C   0  0  0  0  0  0  0  0  0  0  0  0
   31.0410    8.0900   27.5120 C   0  0  0  0  0  0  0  0  0  0  0  0
   31.5650    6.9080   28.2960 C   0  0  0  0  0  0  0  0  0  0  0  0
   32.0520    5.9280   27.7380 O   0  0  0  0  0  0  0  0  0  0  0  0
   31.5370    7.0580   29.6330 N   0  0  0  0  0  0  0  0  0  0  0  0
   32.0110    5.9860   30.5390 C   0  0  0  0  0  0  0  0  0  0  0  0
   33.4920    6.2160   30.8900 C   0  0  0  0  0  0  0  0  0  0  0  0
   30.0930    8.8920   28.0040 N   0  0  0  0  0  0  0  0  0  0  0  0
   30.7040    9.6700   25.9840 C   0  0  0  0  0  0  0  0  0  0  0  0
   30.7220   10.4920   24.8390 C   0  0  0  0  0  0  0  0  0  0  0  0
   31.9450   11.0010   24.3910 C   0  0  0  0  0  0  0  0  0  0  0  0
   32.0160   11.8130   23.2580 C   0  0  0  0  0  0  0  0  0  0  0  0
   33.5480   12.4520   22.7020 Cl  0  0  0  0  0  0  0  0  0  0  0  0
   30.8300   12.1310   22.5810 C   0  0  0  0  0  0  0  0  0  0  0  0
   30.8780   12.8740   21.4710 O   0  0  0  0  0  0  0  0  0  0  0  0
   29.5990   11.6240   23.0020 C   0  0  0  0  0  0  0  0  0  0  0  0
   29.5450   10.8400   24.1630 C   0  0  0  0  0  0  0  0  0  0  0  0
   28.3380   10.3530   24.5620 O   0  0  0  0  0  0  0  0  0  0  0  0
   29.8850    9.8740   27.0470 O   0  0  0  0  0  0  0  0  0  0  0  0
  1  2  1  0
  2  3  1  0
  3  4  2  0
  4  5  1  0
  3  6  1  0
  6  7  2  0
  5  8  2  0
  7  8  1  0
  8  9  1  0
  9 10  1  0
 10 11  1  0
 11 12  2  0
 11 13  1  0
 13 14  1  0
 14 15  1  0
 10 16  2  0
  9 17  2  0
 17 18  1  0
 18 19  2  0
 19 20  1  0
 20 21  1  0
 20 22  2  0
 22 23  1  0
 22 24  1  0
 18 25  1  0
 24 25  2  0
 25 26  1  0
 16 27  1  0
 17 27  1  0
M  END
$$$$
