3M96_E38_A_265_
     RDKit          3D

 25 27  0  0  0  0  0  0  0  0999 V2000
   -0.2710    4.6250   11.0300 N   0  0  0  0  0  0  0  0  0  0  0  0
   -1.1940    3.7840   11.5270 C   0  0  0  0  0  0  0  0  0  0  0  0
   -1.8170    4.3030   12.6130 N   0  0  0  0  0  0  0  0  0  0  0  0
   -1.2880    5.5040   12.7800 C   0  0  0  0  0  0  0  0  0  0  0  0
   -0.3130    5.7000   11.8200 C   0  0  0  0  0  0  0  0  0  0  0  0
    0.4660    6.8740   11.7480 C   0  0  0  0  0  0  0  0  0  0  0  0
    0.2040    7.8520   12.7210 C   0  0  0  0  0  0  0  0  0  0  0  0
   -0.8230    7.5760   13.6760 C   0  0  0  0  0  0  0  0  0  0  0  0
   -1.6080    6.4480   13.7310 C   0  0  0  0  0  0  0  0  0  0  0  0
   -1.6170    2.1790   10.8660 S   0  0  0  0  0  0  0  0  0  0  0  0
   -3.0000    1.7600   12.0340 C   0  0  0  0  0  0  0  0  0  0  0  0
   -4.1650    2.7500   12.1140 C   0  0  0  0  0  0  0  0  0  0  0  0
   -4.6320    3.3460   11.0770 O   0  0  0  0  0  0  0  0  0  0  0  0
   -1.2970    8.7700   15.0770 Br  0  0  0  0  0  0  0  0  0  0  0  0
   -4.7670    3.0550   13.5230 C   0  0  0  0  0  0  0  0  0  0  0  0
   -5.0000    1.9870   14.4210 C   0  0  0  0  0  0  0  0  0  0  0  0
   -5.5450    2.1980   15.6290 C   0  0  0  0  0  0  0  0  0  0  0  0
   -5.9720    3.4660   16.0130 C   0  0  0  0  0  0  0  0  0  0  0  0
   -5.7520    4.5410   15.1320 C   0  0  0  0  0  0  0  0  0  0  0  0
   -5.1900    4.3260   13.9260 C   0  0  0  0  0  0  0  0  0  0  0  0
   -5.8940    0.7730   16.6870 S   0  0  0  0  0  0  0  0  0  0  0  0
   -7.3930    0.6870   16.6940 O   0  0  0  0  0  0  0  0  0  0  0  0
   -6.7030    3.7980   17.4640 Cl  0  0  0  0  0  0  0  0  0  0  0  0
   -5.2650    1.0420   17.9690 O   0  0  0  0  0  0  0  0  0  0  0  0
   -5.2850   -0.5600   16.0000 N   0  0  0  0  0  0  0  0  0  0  0  0
  1  2  1  0
  2  3  2  0
  3  4  1  0
  1  5  1  0
  4  5  2  0
  5  6  1  0
  6  7  2  0
  7  8  1  0
  4  9  1  0
  8  9  2  0
  2 10  1  0
 10 11  1  0
 11 12  1  0
 12 13  2  0
  8 14  1  0
 12 15  1  0
 15 16  2  0
 16 17  1  0
 17 18  2  0
 18 19  1  0
 15 20  1  0
 19 20  2  0
 17 21  1  0
 21 22  2  0
 18 23  1  0
 21 24  2  0
 21 25  1  0
M  END
$$$$
