4E4A_JKE_A_302_
     RDKit          3D

 10 10  0  0  0  0  0  0  0  0999 V2000
   -5.9523    3.9998   13.9851 S   0  0  0  0  0  0  0  0  0  0  0  0
   -4.2514    1.9657   15.2524 C   0  0  0  0  0  0  0  0  0  0  0  0
   -3.5305    3.0779   14.5779 C   0  0  0  0  0  0  0  0  0  0  0  0
   -3.5473    5.0974   13.3166 C   0  0  0  0  0  0  0  0  0  0  0  0
   -5.5053    1.7472   15.1299 O   0  0  0  0  0  0  0  0  0  0  0  0
   -1.4868    4.2151   13.9593 C   0  0  0  0  0  0  0  0  0  0  0  0
   -3.5786    1.3722   16.0763 O   0  0  0  0  0  0  0  0  0  0  0  0
   -4.2275    4.0793   13.9717 C   0  0  0  0  0  0  0  0  0  0  0  0
   -2.1318    3.1463   14.6023 C   0  0  0  0  0  0  0  0  0  0  0  0
   -2.1996    5.2017   13.3150 C   0  0  0  0  0  0  0  0  0  0  0  0
  2  3  1  0
  2  5  2  0
  2  7  1  0
  1  8  1  0
  3  8  2  0
  4  8  1  0
  3  9  1  0
  6  9  2  0
  4 10  2  0
  6 10  1  0
M  END
$$$$
