1L2S_STC_B_3115_
     RDKit          3D

 19 20  0  0  0  0  0  0  0  0999 V2000
   50.9460   -3.6190   23.5860 N   0  0  0  0  0  0  0  0  0  0  0  0
   51.1410   -3.9620   22.2510 C   0  0  0  0  0  0  0  0  0  0  0  0
   50.3880   -3.3260   21.2360 C   0  0  0  0  0  0  0  0  0  0  0  0
   52.1200   -4.9330   21.9250 C   0  0  0  0  0  0  0  0  0  0  0  0
   50.6170   -3.6700   19.8840 C   0  0  0  0  0  0  0  0  0  0  0  0
   52.3480   -5.2780   20.5810 C   0  0  0  0  0  0  0  0  0  0  0  0
   51.5960   -4.6490   19.5620 C   0  0  0  0  0  0  0  0  0  0  0  0
   51.8780   -5.0840   17.9200 Cl  0  0  0  0  0  0  0  0  0  0  0  0
   52.0910   -2.5070   24.2750 S   0  0  0  0  0  0  0  0  0  0  0  0
   52.2620   -1.0080   23.1650 C   0  0  0  0  0  0  0  0  0  0  0  0
   51.5920   -2.1040   25.5610 O   0  0  0  0  0  0  0  0  0  0  0  0
   53.3620   -3.1560   24.4130 O   0  0  0  0  0  0  0  0  0  0  0  0
   51.2490   -0.0920   22.8270 C   0  0  0  0  0  0  0  0  0  0  0  0
   53.4340   -0.6000   22.5210 C   0  0  0  0  0  0  0  0  0  0  0  0
   51.8130    0.8950   21.9990 S   0  0  0  0  0  0  0  0  0  0  0  0
   49.8310   -0.1500   23.2590 C   0  0  0  0  0  0  0  0  0  0  0  0
   53.1650    0.5680   21.8120 C   0  0  0  0  0  0  0  0  0  0  0  0
   49.4040   -1.1430   23.9960 O   0  0  0  0  0  0  0  0  0  0  0  0
   49.0530    0.7200   22.9180 O   0  0  0  0  0  0  0  0  0  0  0  0
  1  2  1  0
  2  3  2  0
  2  4  1  0
  3  5  1  0
  4  6  2  0
  5  7  2  0
  6  7  1  0
  7  8  1  0
  1  9  1  0
  9 10  1  0
  9 11  2  0
  9 12  2  0
 10 13  2  0
 10 14  1  0
 13 15  1  0
 13 16  1  0
 14 17  2  0
 15 17  1  0
 16 18  1  0
 16 19  2  0
M  END
$$$$
