3MHW_ABV_U_245_
     RDKit          3D

 10 11  0  0  0  0  0  0  0  0999 V2000
   -0.4032  -34.4231   -8.9740 C   0  0  0  0  0  0  0  0  0  0  0  0
   -1.8919  -36.2256  -11.5797 N   0  0  0  0  0  0  0  0  0  0  0  0
   -0.7210  -36.9533   -9.4433 S   0  0  0  0  0  0  0  0  0  0  0  0
   -0.5355  -33.1648   -9.3943 C   0  0  0  0  0  0  0  0  0  0  0  0
   -1.8418  -38.5380  -11.1957 N   0  0  0  0  0  0  0  0  0  0  0  0
   -1.1402  -32.8487  -10.5528 C   0  0  0  0  0  0  0  0  0  0  0  0
   -1.6652  -33.8155  -11.3363 C   0  0  0  0  0  0  0  0  0  0  0  0
   -1.5303  -35.0861  -10.9480 C   0  0  0  0  0  0  0  0  0  0  0  0
   -0.8834  -35.3674   -9.7771 C   0  0  0  0  0  0  0  0  0  0  0  0
   -1.5815  -37.3059  -10.8439 C   0  0  0  0  0  0  0  0  0  0  0  0
  1  4  2  0
  4  6  1  0
  6  7  2  0
  2  8  1  0
  7  8  1  0
  1  9  1  0
  3  9  1  0
  8  9  2  0
  2 10  2  0
  3 10  1  0
  5 10  1  0
M  END
$$$$
