3KID_2BS_U_1_
     RDKit          3D

 15 16  0  0  0  0  0  0  0  0999 V2000
   -0.6840  -30.6190  -12.3300 C   0  0  0  0  0  0  0  0  0  0  0  0
   -0.8810  -34.3990   -8.7520 S   0  0  0  0  0  0  0  0  0  0  0  0
   -0.1700  -28.9330  -10.5130 C   0  0  0  0  0  0  0  0  0  0  0  0
   -0.9760  -36.1120  -10.7520 N   0  0  0  0  0  0  0  0  0  0  0  0
   -1.1110  -29.6180  -11.3350 O   0  0  0  0  0  0  0  0  0  0  0  0
   -0.7250  -28.8460   -9.1220 C   0  0  0  0  0  0  0  0  0  0  0  0
   -0.7650  -32.0800  -11.9900 C   0  0  0  0  0  0  0  0  0  0  0  0
   -0.7800  -32.4530  -10.6270 C   0  0  0  0  0  0  0  0  0  0  0  0
   -0.8550  -33.8050  -10.3000 C   0  0  0  0  0  0  0  0  0  0  0  0
   -0.9620  -36.0120   -9.3870 C   0  0  0  0  0  0  0  0  0  0  0  0
   -0.9150  -34.8820  -11.3580 C   0  0  0  0  0  0  0  0  0  0  0  0
   -0.9000  -34.4690  -12.7180 C   0  0  0  0  0  0  0  0  0  0  0  0
   -0.2760  -30.2490  -13.4280 O   0  0  0  0  0  0  0  0  0  0  0  0
   -1.0030  -37.1030   -8.5830 N   0  0  0  0  0  0  0  0  0  0  0  0
   -0.8260  -33.0750  -13.0260 C   0  0  0  0  0  0  0  0  0  0  0  0
  1  5  1  0
  3  5  1  0
  3  6  1  0
  1  7  1  0
  7  8  1  0
  2  9  1  0
  8  9  2  0
  2 10  1  0
  4 10  2  0
  4 11  1  0
  9 11  1  0
 11 12  2  0
  1 13  2  0
 10 14  1  0
  7 15  2  0
 12 15  1  0
M  END
$$$$
