2OPH_277_B_1002_
     RDKit          3D

 23 24  0  0  0  0  0  0  0  0999 V2000
   -7.6481   65.3274   33.6132 C   0  0  0  0  0  0  0  0  0  0  0  0
   -6.5883   64.7749   34.5564 C   0  0  0  0  0  0  0  0  0  0  0  0
   -5.8279   63.5720   33.9218 C   0  0  0  0  0  0  0  0  0  0  0  0
   -6.8428   62.4529   33.5268 C   0  0  0  0  0  0  0  0  0  0  0  0
   -7.9494   62.9773   32.5838 C   0  0  0  0  0  0  0  0  0  0  0  0
   -8.6379   64.2112   33.2001 C   0  0  0  0  0  0  0  0  0  0  0  0
   -4.7192   63.0088   34.8822 C   0  0  0  0  0  0  0  0  0  0  0  0
   -3.5191   64.0187   35.0500 C   0  0  0  0  0  0  0  0  0  0  0  0
   -2.2888   63.2651   35.6748 C   0  0  0  0  0  0  0  0  0  0  0  0
   -1.7580   63.7400   36.8441 N   0  0  0  0  0  0  0  0  0  0  0  0
   -9.6915   64.7129   32.2823 N   0  0  0  0  0  0  0  0  0  0  0  0
  -11.0399   64.4848   32.3853 C   0  0  0  0  0  0  0  0  0  0  0  0
   -9.2951   65.5499   31.1215 C   0  0  0  0  0  0  0  0  0  0  0  0
  -11.5902   63.6293   33.5401 C   0  0  0  0  0  0  0  0  0  0  0  0
  -11.8443   64.9441   31.5817 O   0  0  0  0  0  0  0  0  0  0  0  0
   -1.8619   62.2382   35.1479 O   0  0  0  0  0  0  0  0  0  0  0  0
   -3.2164   64.4185   34.0338 N   0  0  0  0  0  0  0  0  0  0  0  0
   -5.2729   62.6535   36.3071 C   0  0  0  0  0  0  0  0  0  0  0  0
   -2.3559   64.8072   37.5957 C   0  0  0  0  0  0  0  0  0  0  0  0
   -1.4963   64.9954   38.8141 C   0  0  0  0  0  0  0  0  0  0  0  0
   -0.1567   64.4388   38.3843 C   0  0  0  0  0  0  0  0  0  0  0  0
   -0.5124   63.2388   37.5129 C   0  0  0  0  0  0  0  0  0  0  0  0
   -2.0178   64.1889   39.8306 F   0  0  0  0  0  0  0  0  0  0  0  0
  1  2  1  0
  2  3  1  0
  3  4  1  0
  4  5  1  0
  1  6  1  0
  5  6  1  0
  3  7  1  0
  7  8  1  0
  8  9  1  0
  9 10  1  0
  6 11  1  0
 11 12  1  0
 11 13  1  0
 12 14  1  0
 12 15  2  0
  9 16  2  0
  8 17  1  0
  7 18  1  0
 10 19  1  0
 19 20  1  0
 20 21  1  0
 10 22  1  0
 21 22  1  0
 20 23  1  0
M  END
$$$$
