2WAP_PIX_B_1574_
     RDKit          3D

 26 28  0  0  0  0  0  0  0  0999 V2000
   -0.5220  -24.0400  -35.8840 O   0  0  0  0  0  0  0  0  0  0  0  0
   -0.5840  -23.9740  -37.1120 C   0  0  0  0  0  0  0  0  0  0  0  0
   -1.7400  -24.0200  -37.7650 N   0  0  0  0  0  0  0  0  0  0  0  0
   -1.7780  -23.9370  -39.2110 C   0  0  0  0  0  0  0  0  0  0  0  0
   -2.5690  -25.1540  -39.6720 C   0  0  0  0  0  0  0  0  0  0  0  0
   -2.9830  -24.1330  -37.0290 C   0  0  0  0  0  0  0  0  0  0  0  0
   -3.7280  -25.3400  -37.5570 C   0  0  0  0  0  0  0  0  0  0  0  0
   -3.9500  -25.1650  -39.0480 C   0  0  0  0  0  0  0  0  0  0  0  0
   -4.8110  -26.2770  -39.6410 C   0  0  0  0  0  0  0  0  0  0  0  0
   -6.2710  -26.1000  -39.2740 C   0  0  0  0  0  0  0  0  0  0  0  0
   -7.1480  -25.5060  -40.1600 C   0  0  0  0  0  0  0  0  0  0  0  0
   -8.4930  -25.3680  -39.8390 C   0  0  0  0  0  0  0  0  0  0  0  0
   -8.9690  -25.8230  -38.6270 C   0  0  0  0  0  0  0  0  0  0  0  0
   -6.7550  -26.5500  -38.0570 C   0  0  0  0  0  0  0  0  0  0  0  0
   -8.0900  -26.4030  -37.7370 C   0  0  0  0  0  0  0  0  0  0  0  0
   -8.5420  -26.8740  -36.5420 O   0  0  0  0  0  0  0  0  0  0  0  0
   -8.9850  -28.1710  -36.4350 C   0  0  0  0  0  0  0  0  0  0  0  0
   -8.9470  -29.0240  -37.5340 C   0  0  0  0  0  0  0  0  0  0  0  0
   -9.3860  -30.3260  -37.3820 C   0  0  0  0  0  0  0  0  0  0  0  0
   -9.4560  -28.6190  -35.2420 N   0  0  0  0  0  0  0  0  0  0  0  0
   -9.8900  -29.8760  -35.0800 C   0  0  0  0  0  0  0  0  0  0  0  0
   -9.8660  -30.7590  -36.1530 C   0  0  0  0  0  0  0  0  0  0  0  0
  -10.3770  -32.1650  -36.0210 C   0  0  0  0  0  0  0  0  0  0  0  0
  -11.3980  -32.2110  -35.1830 F   0  0  0  0  0  0  0  0  0  0  0  0
  -10.8220  -32.5840  -37.1990 F   0  0  0  0  0  0  0  0  0  0  0  0
   -9.4080  -32.9350  -35.5930 F   0  0  0  0  0  0  0  0  0  0  0  0
  1  2  2  0
  2  3  1  0
  3  4  1  0
  4  5  1  0
  3  6  1  0
  6  7  1  0
  5  8  1  0
  7  8  1  0
  8  9  1  0
  9 10  1  0
 10 11  2  0
 11 12  1  0
 12 13  2  0
 10 14  1  0
 13 15  1  0
 14 15  2  0
 15 16  1  0
 16 17  1  0
 17 18  2  0
 18 19  1  0
 17 20  1  0
 20 21  2  0
 19 22  2  0
 21 22  1  0
 22 23  1  0
 23 24  1  0
 23 25  1  0
 23 26  1  0
M  END
$$$$
