1O3E_696_A_246_A
     RDKit          3D

 41 44  0  0  0  0  0  0  0  0999 V2000
   44.2453   -2.9812   26.3865 C   0  0  0  0  0  0  0  0  0  0  0  0
   44.6082   -1.5994   26.3661 C   0  0  0  0  0  0  0  0  0  0  0  0
   44.6134   -0.7841   27.5014 C   0  0  0  0  0  0  0  0  0  0  0  0
   44.2415   -1.3775   28.6591 C   0  0  0  0  0  0  0  0  0  0  0  0
   43.8878   -2.6946   28.7538 C   0  0  0  0  0  0  0  0  0  0  0  0
   43.8746   -3.5380   27.6363 C   0  0  0  0  0  0  0  0  0  0  0  0
   44.2734   -3.7325   25.2054 C   0  0  0  0  0  0  0  0  0  0  0  0
   43.9659   -5.0125   25.2212 N   0  0  0  0  0  0  0  0  0  0  0  0
   44.6194   -3.1231   24.0858 N   0  0  0  0  0  0  0  0  0  0  0  0
   44.1533   -0.9211   29.8640 N   0  0  0  0  0  0  0  0  0  0  0  0
   43.5807   -3.0537   30.0094 C   0  0  0  0  0  0  0  0  0  0  0  0
   43.7809   -1.9068   30.6050 C   0  0  0  0  0  0  0  0  0  0  0  0
   43.5097   -1.7694   31.9636 C   0  0  0  0  0  0  0  0  0  0  0  0
   43.2628   -2.9037   32.7430 C   0  0  0  0  0  0  0  0  0  0  0  0
   42.9803   -2.8142   34.0915 C   0  0  0  0  0  0  0  0  0  0  0  0
   42.9379   -1.5796   34.7005 C   0  0  0  0  0  0  0  0  0  0  0  0
   43.1729   -0.3954   33.9683 C   0  0  0  0  0  0  0  0  0  0  0  0
   43.4613   -0.5138   32.5988 C   0  0  0  0  0  0  0  0  0  0  0  0
   43.7262    0.6283   31.8574 O   0  0  0  0  0  0  0  0  0  0  0  0
   43.1105    0.8482   34.6074 C   0  0  0  0  0  0  0  0  0  0  0  0
   44.1388    1.7900   34.4971 C   0  0  0  0  0  0  0  0  0  0  0  0
   44.0803    3.0156   35.1392 C   0  0  0  0  0  0  0  0  0  0  0  0
   42.9876    3.3473   35.9197 C   0  0  0  0  0  0  0  0  0  0  0  0
   41.9394    2.4355   36.0522 C   0  0  0  0  0  0  0  0  0  0  0  0
   42.0059    1.2019   35.3991 C   0  0  0  0  0  0  0  0  0  0  0  0
   44.9027   -1.1357   25.4409 H   0  0  0  0  0  0  0  0  0  0  0  0
   44.8890    0.2521   27.4836 H   0  0  0  0  0  0  0  0  0  0  0  0
   43.5939   -4.5784   27.7201 H   0  0  0  0  0  0  0  0  0  0  0  0
   43.7205   -5.4462   26.1015 H   0  0  0  0  0  0  0  0  0  0  0  0
   43.9476   -5.6112   24.4248 H   0  0  0  0  0  0  0  0  0  0  0  0
   44.8409   -2.1419   24.0868 H   0  0  0  0  0  0  0  0  0  0  0  0
   44.7055   -3.5959   23.2139 H   0  0  0  0  0  0  0  0  0  0  0  0
   44.3115   -0.0333   30.2686 H   0  0  0  0  0  0  0  0  0  0  0  0
   43.2922   -3.8850   32.2820 H   0  0  0  0  0  0  0  0  0  0  0  0
   42.7993   -3.7110   34.6658 H   0  0  0  0  0  0  0  0  0  0  0  0
   42.7182   -1.5291   35.7548 H   0  0  0  0  0  0  0  0  0  0  0  0
   45.0089    1.5564   33.8950 H   0  0  0  0  0  0  0  0  0  0  0  0
   44.8958    3.7122   35.0259 H   0  0  0  0  0  0  0  0  0  0  0  0
   42.9491    4.3024   36.4216 H   0  0  0  0  0  0  0  0  0  0  0  0
   41.0784    2.6781   36.6563 H   0  0  0  0  0  0  0  0  0  0  0  0
   41.1864    0.5034   35.5084 H   0  0  0  0  0  0  0  0  0  0  0  0
  1  2  2  0
  2  3  1  0
  3  4  2  0
  4  5  1  0
  1  6  1  0
  5  6  2  0
  1  7  1  0
  7  8  1  0
  7  9  2  0
  4 10  1  0
  5 11  1  0
 10 12  1  0
 11 12  2  0
 12 13  1  0
 13 14  2  0
 14 15  1  0
 15 16  2  0
 16 17  1  0
 13 18  1  0
 17 18  2  0
 18 19  1  0
 17 20  1  0
 20 21  2  0
 21 22  1  0
 22 23  2  0
 23 24  1  0
 20 25  1  0
 24 25  2  0
  2 26  1  0
  3 27  1  0
  6 28  1  0
  8 29  1  0
  8 30  1  0
  9 31  1  0
  9 32  1  0
 10 33  1  0
 14 34  1  0
 15 35  1  0
 16 36  1  0
 21 37  1  0
 22 38  1  0
 23 39  1  0
 24 40  1  0
 25 41  1  0
M  CHG  2   9   1  19  -1
M  END
$$$$
