3EKO_PYU_B_901_
     RDKit          3D

 16 17  0  0  0  0  0  0  0  0999 V2000
   15.8230   -4.6538    7.1118 N   0  0  0  0  0  0  0  0  0  0  0  0
   13.7395   -4.4818    9.9725 C   0  0  0  0  0  0  0  0  0  0  0  0
   13.0518   -1.7777    9.4030 C   0  0  0  0  0  0  0  0  0  0  0  0
   12.5865   -3.9107   10.5666 C   0  0  0  0  0  0  0  0  0  0  0  0
   16.9093   -5.2312    6.4793 C   0  0  0  0  0  0  0  0  0  0  0  0
   14.8346   -4.4625    6.1440 C   0  0  0  0  0  0  0  0  0  0  0  0
   16.6101   -5.3971    5.1492 C   0  0  0  0  0  0  0  0  0  0  0  0
   15.2995   -4.9118    4.9372 C   0  0  0  0  0  0  0  0  0  0  0  0
   14.5468   -3.7128    9.0985 C   0  0  0  0  0  0  0  0  0  0  0  0
   12.2521   -2.5605   10.2775 C   0  0  0  0  0  0  0  0  0  0  0  0
   14.2028   -2.3592    8.8141 C   0  0  0  0  0  0  0  0  0  0  0  0
   15.7400   -4.3266    8.4853 C   0  0  0  0  0  0  0  0  0  0  0  0
   16.7094   -4.5715    9.2126 O   0  0  0  0  0  0  0  0  0  0  0  0
   11.1352   -2.0332   10.8600 O   0  0  0  0  0  0  0  0  0  0  0  0
   14.9411   -1.5672    7.9747 O   0  0  0  0  0  0  0  0  0  0  0  0
   14.0788   -5.7831   10.2377 O   0  0  0  0  0  0  0  0  0  0  0  0
  2  4  2  0
  1  5  1  0
  1  6  1  0
  5  7  2  0
  6  8  2  0
  7  8  1  0
  2  9  1  0
  3 10  2  0
  4 10  1  0
  3 11  1  0
  9 11  2  0
  1 12  1  0
  9 12  1  0
 12 13  2  0
 10 14  1  0
 11 15  1  0
  2 16  1  0
M  END
$$$$
