3V51_I76_A_701_
     RDKit          3D

 32 36  0  0  0  0  0  0  0  0999 V2000
   17.5330   17.8720   63.3040 C   0  0  0  0  0  0  0  0  0  0  0  0
   17.5160   16.5880   62.4770 C   0  0  0  0  0  0  0  0  0  0  0  0
   17.4140   16.9150   60.9690 C   0  0  0  0  0  0  0  0  0  0  0  0
   16.3950   15.7050   62.8790 N   0  0  0  0  0  0  0  0  0  0  0  0
   15.2470   16.0710   63.1930 N   0  0  0  0  0  0  0  0  0  0  0  0
   16.5240   14.3880   62.9050 C   0  0  0  0  0  0  0  0  0  0  0  0
   17.5700   13.5810   62.6500 N   0  0  0  0  0  0  0  0  0  0  0  0
   17.4310   12.2710   62.7750 C   0  0  0  0  0  0  0  0  0  0  0  0
   16.2800   11.7150   63.1410 N   0  0  0  0  0  0  0  0  0  0  0  0
   15.1950   12.4770   63.4180 C   0  0  0  0  0  0  0  0  0  0  0  0
   14.0690   11.8450   63.7770 N   0  0  0  0  0  0  0  0  0  0  0  0
   15.2950   13.8700   63.3070 C   0  0  0  0  0  0  0  0  0  0  0  0
   14.4860   15.0100   63.5050 C   0  0  0  0  0  0  0  0  0  0  0  0
   13.1230   15.0230   63.8770 C   0  0  0  0  0  0  0  0  0  0  0  0
   12.6270   14.3670   65.0030 C   0  0  0  0  0  0  0  0  0  0  0  0
   12.2150   15.7750   63.1030 C   0  0  0  0  0  0  0  0  0  0  0  0
   10.8550   15.8130   63.4260 C   0  0  0  0  0  0  0  0  0  0  0  0
   10.3640   15.1280   64.5220 C   0  0  0  0  0  0  0  0  0  0  0  0
    9.0160   15.1700   64.8330 C   0  0  0  0  0  0  0  0  0  0  0  0
   11.2660   14.4120   65.3270 C   0  0  0  0  0  0  0  0  0  0  0  0
   10.7910   13.7280   66.4270 C   0  0  0  0  0  0  0  0  0  0  0  0
    9.4420   13.7650   66.7380 C   0  0  0  0  0  0  0  0  0  0  0  0
    8.5440   14.4890   65.9430 C   0  0  0  0  0  0  0  0  0  0  0  0
    7.2300   14.4700   66.3220 O   0  0  0  0  0  0  0  0  0  0  0  0
    6.1450   14.8770   65.4390 C   0  0  0  0  0  0  0  0  0  0  0  0
    4.8880   15.0650   66.0690 C   0  0  0  0  0  0  0  0  0  0  0  0
    3.8240   15.6870   65.4080 C   0  0  0  0  0  0  0  0  0  0  0  0
    2.6290   15.8800   66.0930 C   0  0  0  0  0  0  0  0  0  0  0  0
    1.3210   16.6410   65.2720 Cl  0  0  0  0  0  0  0  0  0  0  0  0
    2.4610   15.4820   67.4100 C   0  0  0  0  0  0  0  0  0  0  0  0
    3.5260   14.8710   68.0740 C   0  0  0  0  0  0  0  0  0  0  0  0
    4.7120   14.6800   67.3980 C   0  0  0  0  0  0  0  0  0  0  0  0
  1  2  1  0
  2  3  1  0
  2  4  1  0
  4  5  1  0
  4  6  1  0
  6  7  2  0
  7  8  1  0
  8  9  2  0
  9 10  1  0
 10 11  1  0
  6 12  1  0
 10 12  2  0
  5 13  2  0
 12 13  1  0
 13 14  1  0
 14 15  2  0
 14 16  1  0
 16 17  2  0
 17 18  1  0
 18 19  1  0
 18 20  2  0
 15 20  1  0
 20 21  1  0
 21 22  2  0
 19 23  2  0
 22 23  1  0
 23 24  1  0
 24 25  1  0
 25 26  1  0
 26 27  2  0
 27 28  1  0
 28 29  1  0
 28 30  2  0
 30 31  1  0
 26 32  1  0
 31 32  2  0
M  END
$$$$
