2HB1_512_A_800_
     RDKit          3D

 14 14  0  0  0  0  0  0  0  0999 V2000
   45.1188   13.0985    1.1335 C   0  0  0  0  0  0  0  0  0  0  0  0
   45.6787   13.5316    2.3560 C   0  0  0  0  0  0  0  0  0  0  0  0
   44.3310   14.4111    0.3984 S   0  0  0  0  0  0  0  0  0  0  0  0
   44.6854   15.5397    1.6259 C   0  0  0  0  0  0  0  0  0  0  0  0
   45.4437   14.9044    2.6480 C   0  0  0  0  0  0  0  0  0  0  0  0
   44.2538   16.8684    1.5533 C   0  0  0  0  0  0  0  0  0  0  0  0
   43.5582   17.1731    0.4410 O   0  0  0  0  0  0  0  0  0  0  0  0
   45.9539   15.5006    3.8635 O   0  0  0  0  0  0  0  0  0  0  0  0
   47.1804   16.2399    3.6804 C   0  0  0  0  0  0  0  0  0  0  0  0
   47.4804   17.1256    4.8918 C   0  0  0  0  0  0  0  0  0  0  0  0
   48.6353   17.8045    4.8136 O   0  0  0  0  0  0  0  0  0  0  0  0
   44.4781   17.6887    2.4116 O   0  0  0  0  0  0  0  0  0  0  0  0
   46.7596   17.2074    5.8364 O   0  0  0  0  0  0  0  0  0  0  0  0
   46.6483   12.3762    3.4792 Br  0  0  0  0  0  0  0  0  0  0  0  0
  1  2  2  0
  1  3  1  0
  3  4  1  0
  2  5  1  0
  4  5  2  0
  4  6  1  0
  6  7  2  0
  5  8  1  0
  8  9  1  0
  9 10  1  0
 10 11  2  0
  6 12  1  0
 10 13  1  0
  2 14  1  0
M  END
$$$$
