2QBS_024_A_800_
     RDKit          3D

 27 29  0  0  0  0  0  0  0  0999 V2000
   44.6461   14.1915    0.5347 S   0  0  0  0  0  0  0  0  0  0  0  0
   44.7775   15.5958    1.4912 C   0  0  0  0  0  0  0  0  0  0  0  0
   45.6826   15.3597    2.5592 C   0  0  0  0  0  0  0  0  0  0  0  0
   46.2247   14.0438    2.5332 C   0  0  0  0  0  0  0  0  0  0  0  0
   45.7341   13.2541    1.4565 C   0  0  0  0  0  0  0  0  0  0  0  0
   44.0382   16.7543    1.1735 C   0  0  0  0  0  0  0  0  0  0  0  0
   43.4791   16.7934    0.0757 O   0  0  0  0  0  0  0  0  0  0  0  0
   43.9571   17.6882    1.9658 O   0  0  0  0  0  0  0  0  0  0  0  0
   46.0238   11.8333    1.0860 C   0  0  0  0  0  0  0  0  0  0  0  0
   47.2724   11.1648    1.3450 C   0  0  0  0  0  0  0  0  0  0  0  0
   47.4239    9.7944    0.9657 C   0  0  0  0  0  0  0  0  0  0  0  0
   46.3517    9.0835    0.3303 C   0  0  0  0  0  0  0  0  0  0  0  0
   45.1142    9.7350    0.0662 C   0  0  0  0  0  0  0  0  0  0  0  0
   44.9608   11.0995    0.4485 C   0  0  0  0  0  0  0  0  0  0  0  0
   47.4758   13.4494    3.8556 Br  0  0  0  0  0  0  0  0  0  0  0  0
   46.0465   16.2851    3.5726 O   0  0  0  0  0  0  0  0  0  0  0  0
   47.2285   17.0505    3.3392 C   0  0  0  0  0  0  0  0  0  0  0  0
   47.6268   17.7066    4.6573 C   0  0  0  0  0  0  0  0  0  0  0  0
   46.8531   17.6310    5.6269 O   0  0  0  0  0  0  0  0  0  0  0  0
   48.7047   18.2862    4.7160 O   0  0  0  0  0  0  0  0  0  0  0  0
   48.6436    9.1007    1.2326 N   0  0  0  0  0  0  0  0  0  0  0  0
   49.1840    7.9012    1.7421 C   0  0  0  0  0  0  0  0  0  0  0  0
   50.7087    7.9656    1.9235 C   0  0  0  0  0  0  0  0  0  0  0  0
   51.1940    6.5957    2.4592 C   0  0  0  0  0  0  0  0  0  0  0  0
   50.4661    6.1797    3.7703 C   0  0  0  0  0  0  0  0  0  0  0  0
   48.9167    6.2449    3.6554 C   0  0  0  0  0  0  0  0  0  0  0  0
   48.4545    7.5961    3.0766 C   0  0  0  0  0  0  0  0  0  0  0  0
  1  2  1  0
  2  3  2  0
  3  4  1  0
  1  5  1  0
  4  5  2  0
  2  6  1  0
  6  7  2  0
  6  8  1  0
  5  9  1  0
  9 10  2  0
 10 11  1  0
 11 12  2  0
 12 13  1  0
  9 14  1  0
 13 14  2  0
  4 15  1  0
  3 16  1  0
 16 17  1  0
 17 18  1  0
 18 19  1  0
 18 20  2  0
 11 21  1  0
 21 22  1  0
 22 23  1  0
 23 24  1  0
 24 25  1  0
 25 26  1  0
 22 27  1  0
 26 27  1  0
M  END
$$$$
