4AWQ_592_B_1224_
     RDKit          3D

 36 40  0  0  0  0  0  0  0  0999 V2000
   10.0120   19.7140   15.6550 C   0  0  0  0  0  0  0  0  0  0  0  0
    9.6250   20.9020   16.5480 C   0  0  0  0  0  0  0  0  0  0  0  0
    9.0550   20.6480   17.7940 C   0  0  0  0  0  0  0  0  0  0  0  0
    8.7520   19.3540   18.1570 O   0  0  0  0  0  0  0  0  0  0  0  0
    8.1780   19.1560   19.4500 C   0  0  0  0  0  0  0  0  0  0  0  0
    8.7420   21.7600   18.6190 C   0  0  0  0  0  0  0  0  0  0  0  0
    9.0060   23.0730   18.2670 C   0  0  0  0  0  0  0  0  0  0  0  0
    9.5890   23.3210   17.0180 C   0  0  0  0  0  0  0  0  0  0  0  0
    9.9150   22.2400   16.1830 C   0  0  0  0  0  0  0  0  0  0  0  0
   10.5700   22.5850   14.8530 C   0  0  0  0  0  0  0  0  0  0  0  0
   10.0530   22.2560   13.7740 O   0  0  0  0  0  0  0  0  0  0  0  0
   11.7040   23.3230   14.9890 N   0  0  0  0  0  0  0  0  0  0  0  0
   12.5440   23.7750   13.8640 C   0  0  0  0  0  0  0  0  0  0  0  0
   11.8020   24.9070   13.0740 C   0  0  0  0  0  0  0  0  0  0  0  0
   13.9410   24.2080   14.4860 C   0  0  0  0  0  0  0  0  0  0  0  0
   13.9250   25.7080   14.9220 C   0  0  0  0  0  0  0  0  0  0  0  0
   12.8550   26.0560   15.9890 C   0  0  0  0  0  0  0  0  0  0  0  0
   11.5880   26.2880   15.2000 C   0  0  0  0  0  0  0  0  0  0  0  0
   11.9780   26.3040   13.6890 C   0  0  0  0  0  0  0  0  0  0  0  0
   13.4470   26.4490   13.7420 N   0  0  0  0  0  0  0  0  0  0  0  0
   14.2740   26.9550   12.7550 C   0  0  0  0  0  0  0  0  0  0  0  0
   15.6910   26.9600   12.9620 C   0  0  0  0  0  0  0  0  0  0  0  0
   16.4910   27.4500   11.9260 C   0  0  0  0  0  0  0  0  0  0  0  0
   13.7240   27.3370   11.6010 N   0  0  0  0  0  0  0  0  0  0  0  0
   14.4770   27.8300   10.6000 C   0  0  0  0  0  0  0  0  0  0  0  0
   15.8720   27.8610   10.7470 C   0  0  0  0  0  0  0  0  0  0  0  0
   16.7270   28.4530    9.6140 C   0  0  0  0  0  0  0  0  0  0  0  0
   16.1490   28.8810    8.6290 O   0  0  0  0  0  0  0  0  0  0  0  0
   18.0820   28.5040    9.8310 N   0  0  0  0  0  0  0  0  0  0  0  0
   18.9730   29.1230    8.8470 C   0  0  0  0  0  0  0  0  0  0  0  0
   19.2290   28.3220    7.5670 C   0  0  0  0  0  0  0  0  0  0  0  0
   19.8150   28.9780    6.4760 C   0  0  0  0  0  0  0  0  0  0  0  0
   20.0600   28.2430    5.3040 C   0  0  0  0  0  0  0  0  0  0  0  0
   19.7220   26.8840    5.2700 C   0  0  0  0  0  0  0  0  0  0  0  0
   19.1510   26.2300    6.3670 C   0  0  0  0  0  0  0  0  0  0  0  0
   18.9080   26.9620    7.5290 C   0  0  0  0  0  0  0  0  0  0  0  0
  1  2  1  0
  2  3  2  0
  3  4  1  0
  4  5  1  0
  3  6  1  0
  6  7  2  0
  7  8  1  0
  2  9  1  0
  8  9  2  0
  9 10  1  0
 10 11  2  0
 10 12  1  0
 12 13  1  0
 13 14  1  0
 13 15  1  0
 15 16  1  0
 16 17  1  0
 17 18  1  0
 14 19  1  0
 18 19  1  0
 16 20  1  0
 19 20  1  0
 20 21  1  0
 21 22  2  0
 22 23  1  0
 21 24  1  0
 24 25  2  0
 23 26  2  0
 25 26  1  0
 26 27  1  0
 27 28  2  0
 27 29  1  0
 29 30  1  0
 30 31  1  0
 31 32  2  0
 32 33  1  0
 33 34  2  0
 34 35  1  0
 31 36  1  0
 35 36  2  0
M  END
$$$$
