2ZXA_ZXA_B_902_
     RDKit          3D

 15 15  0  0  0  0  0  0  0  0999 V2000
   26.9207    4.6832   53.3297 C   0  0  0  0  0  0  0  0  0  0  0  0
   25.8802    4.3995   54.4158 C   0  0  0  0  0  0  0  0  0  0  0  0
   24.7435    4.0104   54.1468 O   0  0  0  0  0  0  0  0  0  0  0  0
   26.3156    4.6240   55.6483 N   0  0  0  0  0  0  0  0  0  0  0  0
   25.5151    4.4222   56.8627 C   0  0  0  0  0  0  0  0  0  0  0  0
   26.4484    4.9051   57.9717 C   0  0  0  0  0  0  0  0  0  0  0  0
   26.4630    6.3751   57.9896 N   0  0  0  0  0  0  0  0  0  0  0  0
   27.4914    6.8552   58.9257 C   0  0  0  0  0  0  0  0  0  0  0  0
   27.5179    8.3853   58.8867 C   0  0  0  0  0  0  0  0  0  0  0  0
   27.2589    6.3193   60.3449 C   0  0  0  0  0  0  0  0  0  0  0  0
   26.1054    6.8811   60.9781 O   0  0  0  0  0  0  0  0  0  0  0  0
   27.1004    4.8003   60.3449 C   0  0  0  0  0  0  0  0  0  0  0  0
   26.6889    4.4495   61.6653 O   0  0  0  0  0  0  0  0  0  0  0  0
   26.0160    4.3912   59.3439 C   0  0  0  0  0  0  0  0  0  0  0  0
   25.8535    2.9692   59.2780 O   0  0  0  0  0  0  0  0  0  0  0  0
  1  2  1  0
  2  3  2  0
  2  4  1  0
  4  5  1  0
  5  6  1  0
  6  7  1  0
  7  8  1  0
  8  9  1  0
  8 10  1  0
 10 11  1  0
 10 12  1  0
 12 13  1  0
  6 14  1  0
 12 14  1  0
 14 15  1  0
M  END
$$$$
