3MSJ_EV3_B_393_
     RDKit          3D

 15 16  0  0  0  0  0  0  0  0999 V2000
   17.3539  -38.1471   11.0946 C   0  0  0  0  0  0  0  0  0  0  0  0
   17.4057  -39.5080   11.4286 C   0  0  0  0  0  0  0  0  0  0  0  0
   16.8085  -37.7417    9.8781 C   0  0  0  0  0  0  0  0  0  0  0  0
   16.9060  -40.4775   10.5542 C   0  0  0  0  0  0  0  0  0  0  0  0
   16.3226  -38.7158    9.0275 C   0  0  0  0  0  0  0  0  0  0  0  0
   16.3638  -40.0513    9.3482 C   0  0  0  0  0  0  0  0  0  0  0  0
   15.7655  -38.5664    7.8323 N   0  0  0  0  0  0  0  0  0  0  0  0
   15.4698  -39.8066    7.4104 C   0  0  0  0  0  0  0  0  0  0  0  0
   15.8291  -40.7277    8.3239 N   0  0  0  0  0  0  0  0  0  0  0  0
   14.8570  -40.0649    6.1767 N   0  0  0  0  0  0  0  0  0  0  0  0
   15.6524  -42.1937    8.2510 C   0  0  0  0  0  0  0  0  0  0  0  0
   14.3225  -42.6428    8.8777 C   0  0  0  0  0  0  0  0  0  0  0  0
   13.0517  -41.9321    8.3926 C   0  0  0  0  0  0  0  0  0  0  0  0
   12.3714  -42.7147    7.4165 O   0  0  0  0  0  0  0  0  0  0  0  0
   17.9700  -36.9625   12.1770 Cl  0  0  0  0  0  0  0  0  0  0  0  0
  1  2  2  0
  1  3  1  0
  2  4  1  0
  3  5  2  0
  4  6  2  0
  5  6  1  0
  5  7  1  0
  7  8  2  0
  6  9  1  0
  8  9  1  0
  8 10  1  0
  9 11  1  0
 11 12  1  0
 12 13  1  0
 13 14  1  0
  1 15  1  0
M  END
$$$$
