1IL5_DDP_A_301_
     RDKit          3D

 10 10  0  0  0  0  0  0  0  0999 V2000
    0.8807    8.2440    7.3968 C   0  0  0  0  0  0  0  0  0  0  0  0
    0.5083    8.6421    8.6912 N   0  0  0  0  0  0  0  0  0  0  0  0
   -0.0455    8.0411    6.3564 C   0  0  0  0  0  0  0  0  0  0  0  0
    0.3967    7.6538    5.1347 N   0  0  0  0  0  0  0  0  0  0  0  0
    1.7074    7.4572    4.8875 C   0  0  0  0  0  0  0  0  0  0  0  0
    2.1271    7.0552    3.6110 N   0  0  0  0  0  0  0  0  0  0  0  0
    2.6129    7.6495    5.8798 N   0  0  0  0  0  0  0  0  0  0  0  0
    2.2389    8.0372    7.1227 C   0  0  0  0  0  0  0  0  0  0  0  0
    3.1116    8.1808    7.9369 O   0  0  0  0  0  0  0  0  0  0  0  0
   -1.4081    8.2332    6.5682 O   0  0  0  0  0  0  0  0  0  0  0  0
  1  2  1  0
  1  3  2  0
  3  4  1  0
  4  5  2  0
  5  6  1  0
  5  7  1  0
  1  8  1  0
  7  8  2  0
  8  9  1  0
  3 10  1  0
M  END
$$$$
