3DX1_YHO_A_1050_
     RDKit          3D

  9  9  0  0  0  0  0  0  0  0999 V2000
   33.5808   65.5937    7.1812 O   0  0  0  0  0  0  0  0  0  0  0  0
   32.8043   66.5730    7.9195 C   0  0  0  0  0  0  0  0  0  0  0  0
   32.4177   66.0216    9.3044 C   0  0  0  0  0  0  0  0  0  0  0  0
   33.2757   64.9338    9.6974 O   0  0  0  0  0  0  0  0  0  0  0  0
   30.9402   65.5641    9.1824 C   0  0  0  0  0  0  0  0  0  0  0  0
   30.8269   64.1988    9.7169 N   0  0  0  0  0  0  0  0  0  0  0  0
   30.6202   65.6406    7.6902 C   0  0  0  0  0  0  0  0  0  0  0  0
   31.4304   66.8784    7.3006 C   0  0  0  0  0  0  0  0  0  0  0  0
   31.5042   67.0792    5.8914 O   0  0  0  0  0  0  0  0  0  0  0  0
  1  2  1  0
  2  3  1  0
  3  4  1  0
  3  5  1  0
  5  6  1  0
  5  7  1  0
  2  8  1  0
  7  8  1  0
  8  9  1  0
M  END
$$$$
