2C6C_24I_A_1767_
     RDKit          3D

 21 21  0  0  0  0  0  0  0  0999 V2000
   14.0420   48.9140   41.2050 O   0  0  0  0  0  0  0  0  0  0  0  0
   14.0850   47.7170   40.9600 C   0  0  0  0  0  0  0  0  0  0  0  0
   13.0780   47.2080   40.2340 O   0  0  0  0  0  0  0  0  0  0  0  0
   15.2400   46.9010   41.5370 C   0  0  0  0  0  0  0  0  0  0  0  0
   14.9530   45.4160   41.6760 C   0  0  0  0  0  0  0  0  0  0  0  0
   16.1400   44.6590   42.2360 C   0  0  0  0  0  0  0  0  0  0  0  0
   17.2850   44.8080   41.2410 C   0  0  0  0  0  0  0  0  0  0  0  0
   17.2860   43.9800   40.2220 O   0  0  0  0  0  0  0  0  0  0  0  0
   18.1420   45.6770   41.3440 O   0  0  0  0  0  0  0  0  0  0  0  0
   16.4890   45.1770   43.6500 C   0  0  0  0  0  0  0  0  0  0  0  0
   17.7180   44.2040   44.5120 P   0  0  0  0  0  0  0  0  0  0  0  0
   17.0020   43.6120   45.7800 O   0  0  0  0  0  0  0  0  0  0  0  0
   18.3300   43.0560   43.5460 O   0  0  0  0  0  0  0  0  0  0  0  0
   18.9990   45.4030   44.9180 C   0  0  0  0  0  0  0  0  0  0  0  0
   20.1740   44.9130   45.6410 C   0  0  0  0  0  0  0  0  0  0  0  0
   21.3520   44.5990   44.9640 C   0  0  0  0  0  0  0  0  0  0  0  0
   22.4320   44.1360   45.7290 C   0  0  0  0  0  0  0  0  0  0  0  0
   20.0810   44.8150   47.0150 C   0  0  0  0  0  0  0  0  0  0  0  0
   21.1360   44.3460   47.8040 C   0  0  0  0  0  0  0  0  0  0  0  0
   22.3290   44.0220   47.1370 C   0  0  0  0  0  0  0  0  0  0  0  0
   23.9280   43.3670   48.4000 I   0  0  0  0  0  0  0  0  0  0  0  0
  1  2  2  0
  2  3  1  0
  2  4  1  0
  4  5  1  0
  5  6  1  0
  6  7  1  0
  7  8  1  0
  7  9  2  0
  6 10  1  0
 10 11  1  0
 11 12  2  0
 11 13  1  0
 11 14  1  0
 14 15  1  0
 15 16  2  0
 16 17  1  0
 15 18  1  0
 18 19  2  0
 17 20  2  0
 19 20  1  0
 20 21  1  0
M  END
$$$$
