2JBJ_G88_A_1768_
     RDKit          3D

 14 13  0  0  0  0  0  0  0  0999 V2000
   14.1032   48.9247   41.2199 O   0  0  0  0  0  0  0  0  0  0  0  0
   14.1166   47.6891   40.9957 C   0  0  0  0  0  0  0  0  0  0  0  0
   13.1153   47.1784   40.2607 O   0  0  0  0  0  0  0  0  0  0  0  0
   15.2580   46.8477   41.5978 C   0  0  0  0  0  0  0  0  0  0  0  0
   14.9191   45.3626   41.8365 C   0  0  0  0  0  0  0  0  0  0  0  0
   16.2053   44.5972   42.2830 C   0  0  0  0  0  0  0  0  0  0  0  0
   17.1922   44.7490   41.1455 C   0  0  0  0  0  0  0  0  0  0  0  0
   18.1080   45.5735   41.1339 O   0  0  0  0  0  0  0  0  0  0  0  0
   17.0738   43.9982   40.0476 O   0  0  0  0  0  0  0  0  0  0  0  0
   16.7147   45.2286   43.5871 C   0  0  0  0  0  0  0  0  0  0  0  0
   17.7026   44.0879   44.5296 P   0  0  0  0  0  0  0  0  0  0  0  0
   18.5400   43.1300   43.3120 O   0  0  0  0  0  0  0  0  0  0  0  0
   18.9074   44.7671   45.5424 O   0  0  0  0  0  0  0  0  0  0  0  0
   16.7591   43.2038   45.3835 O   0  0  0  0  0  0  0  0  0  0  0  0
  1  2  2  0
  2  3  1  0
  2  4  1  0
  4  5  1  0
  5  6  1  0
  6  7  1  0
  7  8  1  0
  7  9  2  0
  6 10  1  0
 10 11  1  0
 11 12  2  0
 11 13  1  0
 11 14  1  0
M  END
$$$$
