3K5U_PFQ_A_1001_
     RDKit          3D

 25 28  0  0  0  0  0  0  0  0999 V2000
    4.3473   30.5304    9.4836 C   0  0  0  0  0  0  0  0  0  0  0  0
    3.4215   32.1359    5.4239 C   0  0  0  0  0  0  0  0  0  0  0  0
    2.8075   32.9142    4.4611 C   0  0  0  0  0  0  0  0  0  0  0  0
    2.7482   32.6057    3.1113 C   0  0  0  0  0  0  0  0  0  0  0  0
    2.0382   33.4230    2.2426 C   0  0  0  0  0  0  0  0  0  0  0  0
    1.5053   34.6324    2.6948 C   0  0  0  0  0  0  0  0  0  0  0  0
    1.4218   34.8753    4.0698 C   0  0  0  0  0  0  0  0  0  0  0  0
    2.1728   34.0744    4.9312 C   0  0  0  0  0  0  0  0  0  0  0  0
    4.7298   29.0148    4.1937 C   0  0  0  0  0  0  0  0  0  0  0  0
    5.3821   28.3599    3.1653 C   0  0  0  0  0  0  0  0  0  0  0  0
    6.0895   29.0873    2.2033 C   0  0  0  0  0  0  0  0  0  0  0  0
    6.0349   30.4801    2.2530 C   0  0  0  0  0  0  0  0  0  0  0  0
    3.7328   31.5297    8.8815 N   0  0  0  0  0  0  0  0  0  0  0  0
    3.7409   31.5894    7.5476 C   0  0  0  0  0  0  0  0  0  0  0  0
    3.1181   32.4734    6.7173 O   0  0  0  0  0  0  0  0  0  0  0  0
    4.4527   30.6705    6.7741 C   0  0  0  0  0  0  0  0  0  0  0  0
    5.9315   28.7838    6.8579 N   0  0  0  0  0  0  0  0  0  0  0  0
    5.1534   29.6857    7.4564 C   0  0  0  0  0  0  0  0  0  0  0  0
    5.0361   29.6351    8.7996 N   0  0  0  0  0  0  0  0  0  0  0  0
    5.6075   31.1034    3.4436 C   0  0  0  0  0  0  0  0  0  0  0  0
    4.2546   31.0428    5.4433 C   0  0  0  0  0  0  0  0  0  0  0  0
    4.8531   30.3936    4.3736 C   0  0  0  0  0  0  0  0  0  0  0  0
    7.9646   28.3485    8.2536 C   0  0  0  0  0  0  0  0  0  0  0  0
    6.6737   27.7662    7.6268 C   0  0  0  0  0  0  0  0  0  0  0  0
    8.6353   27.3585    9.0555 O   0  0  0  0  0  0  0  0  0  0  0  0
  2  3  1  0
  3  4  2  0
  4  5  1  0
  5  6  2  0
  6  7  1  0
  3  8  1  0
  7  8  2  0
  9 10  2  0
 10 11  1  0
 11 12  2  0
  1 13  2  0
 13 14  1  0
  2 15  1  0
 14 15  1  0
 14 16  2  0
 16 18  1  0
 17 18  1  0
  1 19  1  0
 18 19  2  0
 12 20  1  0
  2 21  2  0
 16 21  1  0
  9 22  1  0
 20 22  2  0
 21 22  1  0
 17 24  1  0
 23 24  1  0
 23 25  1  0
M  END
$$$$
