1DX6_GNT_A_602_
     RDKit          3D

 21 24  0  0  0  0  0  0  0  0999 V2000
    2.4700   67.5340   63.2010 C   0  0  0  0  0  0  0  0  0  0  0  0
    2.5980   67.9070   61.9410 C   0  0  0  0  0  0  0  0  0  0  0  0
    3.9180   68.1530   61.2660 C   0  0  0  0  0  0  0  0  0  0  0  0
    5.1610   68.1640   62.2440 C   0  0  0  0  0  0  0  0  0  0  0  0
    5.0120   67.1520   63.4030 C   0  0  0  0  0  0  0  0  0  0  0  0
    3.6480   67.2060   64.1640 C   0  0  0  0  0  0  0  0  0  0  0  0
    5.1710   65.7760   62.8850 O   0  0  0  0  0  0  0  0  0  0  0  0
    4.5400   63.5580   63.7920 C   0  0  0  0  0  0  0  0  0  0  0  0
    3.6820   62.9140   64.7140 C   0  0  0  0  0  0  0  0  0  0  0  0
    2.8010   63.6430   65.5070 C   0  0  0  0  0  0  0  0  0  0  0  0
    1.7460   65.7880   66.3260 C   0  0  0  0  0  0  0  0  0  0  0  0
    2.3820   66.8880   67.1060 N   0  0  0  0  0  0  0  0  0  0  0  0
    2.5160   68.1600   66.3430 C   0  0  0  0  0  0  0  0  0  0  0  0
    3.7030   68.1500   65.3760 C   0  0  0  0  0  0  0  0  0  0  0  0
    4.4440   64.9750   63.7330 C   0  0  0  0  0  0  0  0  0  0  0  0
    3.5440   65.7100   64.5470 C   0  0  0  0  0  0  0  0  0  0  0  0
    2.7020   65.0540   65.4510 C   0  0  0  0  0  0  0  0  0  0  0  0
    5.4060   61.8070   62.3790 C   0  0  0  0  0  0  0  0  0  0  0  0
    5.6070   62.9560   63.1470 O   0  0  0  0  0  0  0  0  0  0  0  0
    4.1130   67.1290   60.3230 O   0  0  0  0  0  0  0  0  0  0  0  0
    1.6470   67.0900   68.4040 C   0  0  0  0  0  0  0  0  0  0  0  0
  1  2  2  0
  2  3  1  0
  3  4  1  0
  4  5  1  0
  1  6  1  0
  5  6  1  0
  5  7  1  0
  8  9  2  0
  9 10  1  0
 11 12  1  0
 12 13  1  0
  6 14  1  0
 13 14  1  0
  7 15  1  0
  8 15  1  0
  6 16  1  0
 15 16  2  0
 10 17  2  0
 11 17  1  0
 16 17  1  0
  8 19  1  0
 18 19  1  0
  3 20  1  0
 12 21  1  0
M  END
$$$$
