1GQS_SAF_A_603_
     RDKit          3D

 12 12  0  0  0  0  0  0  0  0999 V2000
    4.4772   67.4749   65.2037 C   0  0  0  0  0  0  0  0  0  0  0  0
    4.3160   66.9042   62.8445 C   0  0  0  0  0  0  0  0  0  0  0  0
    4.8357   68.1563   62.5040 C   0  0  0  0  0  0  0  0  0  0  0  0
    5.2126   69.1277   63.4776 C   0  0  0  0  0  0  0  0  0  0  0  0
    5.0166   68.7623   64.8354 C   0  0  0  0  0  0  0  0  0  0  0  0
    4.9419   68.3639   61.1747 O   0  0  0  0  0  0  0  0  0  0  0  0
    4.3161   63.8769   64.0082 N   0  0  0  0  0  0  0  0  0  0  0  0
    3.9394   62.7420   64.7549 C   0  0  0  0  0  0  0  0  0  0  0  0
    4.0742   63.3891   62.6655 C   0  0  0  0  0  0  0  0  0  0  0  0
    3.4854   65.1110   64.4991 C   0  0  0  0  0  0  0  0  0  0  0  0
    2.9393   64.8844   65.8201 C   0  0  0  0  0  0  0  0  0  0  0  0
    4.1171   66.5129   64.1671 C   0  0  0  0  0  0  0  0  0  0  0  0
  2  3  1  0
  3  4  2  0
  1  5  2  0
  4  5  1  0
  3  6  1  0
  7  8  1  0
  7  9  1  0
  7 10  1  0
 10 11  1  0
  1 12  1  0
  2 12  2  0
 10 12  1  0
M  END
$$$$
