3KME_Z59_B_485_
     RDKit          3D

 26 28  0  0  0  0  0  0  0  0999 V2000
   50.2550   35.2348   38.1228 C   0  0  0  0  0  0  0  0  0  0  0  0
   49.7310   34.8738   36.8876 N   0  0  0  0  0  0  0  0  0  0  0  0
   49.2035   35.1136   39.3225 C   0  0  0  0  0  0  0  0  0  0  0  0
   49.2260   33.6607   39.7384 C   0  0  0  0  0  0  0  0  0  0  0  0
   50.5688   34.9133   35.6963 C   0  0  0  0  0  0  0  0  0  0  0  0
   48.1405   33.1651   40.7584 C   0  0  0  0  0  0  0  0  0  0  0  0
   51.5154   33.7118   35.7305 C   0  0  0  0  0  0  0  0  0  0  0  0
   48.4815   33.0378   42.1113 N   0  0  0  0  0  0  0  0  0  0  0  0
   50.1530   31.1912   43.7191 S   0  0  0  0  0  0  0  0  0  0  0  0
   48.6568   31.8306   44.3444 C   0  0  0  0  0  0  0  0  0  0  0  0
   51.4529   35.6350   38.3177 O   0  0  0  0  0  0  0  0  0  0  0  0
   52.8555   33.9016   35.0304 C   0  0  0  0  0  0  0  0  0  0  0  0
   50.7761   30.7124   45.2988 C   0  0  0  0  0  0  0  0  0  0  0  0
   47.0061   32.9528   40.3134 O   0  0  0  0  0  0  0  0  0  0  0  0
   48.6492   31.6566   45.7922 C   0  0  0  0  0  0  0  0  0  0  0  0
   49.8401   31.0506   46.3155 C   0  0  0  0  0  0  0  0  0  0  0  0
   49.7184   35.9081   40.3928 O   0  0  0  0  0  0  0  0  0  0  0  0
   47.6616   32.4893   43.3183 C   0  0  0  0  0  0  0  0  0  0  0  0
   50.6301   33.3540   40.0433 O   0  0  0  0  0  0  0  0  0  0  0  0
   48.3472   34.4539   36.5663 C   0  0  0  0  0  0  0  0  0  0  0  0
   53.7659   32.8193   35.2987 C   0  0  0  0  0  0  0  0  0  0  0  0
   49.5632   34.8987   34.5205 C   0  0  0  0  0  0  0  0  0  0  0  0
   51.1210   32.4227   36.2179 C   0  0  0  0  0  0  0  0  0  0  0  0
   48.3070   34.1881   35.0610 C   0  0  0  0  0  0  0  0  0  0  0  0
   52.0439   31.3312   36.2515 C   0  0  0  0  0  0  0  0  0  0  0  0
   53.3758   31.5381   35.7881 C   0  0  0  0  0  0  0  0  0  0  0  0
  1  2  1  0
  1  3  1  0
  3  4  1  0
  2  5  1  0
  4  6  1  0
  5  7  1  0
  6  8  1  0
  9 10  1  0
  1 11  2  0
  7 12  2  0
  9 13  1  0
  6 14  2  0
 10 15  2  0
 13 16  2  0
 15 16  1  0
  3 17  1  0
  8 18  1  0
 10 18  1  0
  4 19  1  0
  2 20  1  0
 12 21  1  0
  5 22  1  0
  7 23  1  0
 20 24  1  0
 22 24  1  0
 23 25  2  0
 21 26  2  0
 25 26  1  0
M  END
$$$$
