2WEG_FBV_A_1263_
     RDKit          3D

 11 11  0  0  0  0  0  0  0  0999 V2000
   17.1575    4.1443   14.3195 C   0  0  0  0  0  0  0  0  0  0  0  0
   15.7798    4.1134   14.5123 C   0  0  0  0  0  0  0  0  0  0  0  0
   15.1583    3.1002   15.2618 C   0  0  0  0  0  0  0  0  0  0  0  0
   15.9556    2.0520   15.8062 C   0  0  0  0  0  0  0  0  0  0  0  0
   17.3663    2.1690   15.5637 C   0  0  0  0  0  0  0  0  0  0  0  0
   17.9558    3.1751   14.8502 C   0  0  0  0  0  0  0  0  0  0  0  0
   15.2612    0.7412   16.7519 S   0  0  0  0  0  0  0  0  0  0  0  0
   15.7356   -0.6379   16.0876 N   0  0  0  0  0  0  0  0  0  0  0  0
   15.8442    0.9004   18.0976 O   0  0  0  0  0  0  0  0  0  0  0  0
   13.8561    0.8835   16.5793 O   0  0  0  0  0  0  0  0  0  0  0  0
   18.1256    1.2097   16.1384 F   0  0  0  0  0  0  0  0  0  0  0  0
  1  2  2  0
  2  3  1  0
  3  4  2  0
  4  5  1  0
  1  6  1  0
  5  6  2  0
  4  7  1  0
  7  8  1  0
  7  9  2  0
  7 10  2  0
  5 11  1  0
M  END
$$$$
