3KHV_4AL_A_4069_
     RDKit          3D

 10 10  0  0  0  0  0  0  0  0999 V2000
   10.5148   -9.7993   21.5433 C   0  0  0  0  0  0  0  0  0  0  0  0
    8.2428   -6.5945   16.4733 N   0  0  0  0  0  0  0  0  0  0  0  0
    9.5320  -10.5689   21.5657 O   0  0  0  0  0  0  0  0  0  0  0  0
   10.0493   -9.0465   20.4796 C   0  0  0  0  0  0  0  0  0  0  0  0
   10.4286   -7.7845   20.4120 C   0  0  0  0  0  0  0  0  0  0  0  0
   10.1098   -6.8853   19.5395 C   0  0  0  0  0  0  0  0  0  0  0  0
    9.2852   -7.2579   18.6245 C   0  0  0  0  0  0  0  0  0  0  0  0
    8.8567   -8.5353   18.6354 C   0  0  0  0  0  0  0  0  0  0  0  0
    9.1828   -9.4578   19.5693 C   0  0  0  0  0  0  0  0  0  0  0  0
    8.9377   -6.2483   17.5960 C   0  0  0  0  0  0  0  0  0  0  0  0
  1  3  1  0
  1  4  1  0
  4  5  2  0
  5  6  1  0
  6  7  2  0
  7  8  1  0
  4  9  1  0
  8  9  2  0
  2 10  1  0
  7 10  1  0
M  END
$$$$
