4AJL_88W_D_1333_
     RDKit          3D

 21 22  0  0  0  0  0  0  0  0999 V2000
   16.0884  -11.9045    6.6331 C   0  0  0  0  0  0  0  0  0  0  0  0
   21.6181   -5.8983    1.2068 C   0  0  0  0  0  0  0  0  0  0  0  0
   20.3500   -5.7885    1.7548 C   0  0  0  0  0  0  0  0  0  0  0  0
   14.9071  -11.8277    5.7085 C   0  0  0  0  0  0  0  0  0  0  0  0
   19.4214   -7.1591   -0.0149 C   0  0  0  0  0  0  0  0  0  0  0  0
   21.8013   -6.6362    0.0347 C   0  0  0  0  0  0  0  0  0  0  0  0
   19.2591   -6.4389    1.1705 C   0  0  0  0  0  0  0  0  0  0  0  0
   20.6932   -7.2396   -0.5663 C   0  0  0  0  0  0  0  0  0  0  0  0
   22.8316   -7.4950   -1.7493 C   0  0  0  0  0  0  0  0  0  0  0  0
   17.1081   -7.4244    1.9611 C   0  0  0  0  0  0  0  0  0  0  0  0
   14.7811   -9.8664    4.2229 C   0  0  0  0  0  0  0  0  0  0  0  0
   23.9110   -7.8075   -2.7329 C   0  0  0  0  0  0  0  0  0  0  0  0
   15.8913   -7.0699    2.7897 C   0  0  0  0  0  0  0  0  0  0  0  0
   14.7283   -8.0285    2.5743 C   0  0  0  0  0  0  0  0  0  0  0  0
   23.0036   -6.8069   -0.6485 N   0  0  0  0  0  0  0  0  0  0  0  0
   15.2190  -11.1201    4.4654 N   0  0  0  0  0  0  0  0  0  0  0  0
   18.0100   -6.4226    1.8412 N   0  0  0  0  0  0  0  0  0  0  0  0
   15.0550   -9.3899    2.9894 N   0  0  0  0  0  0  0  0  0  0  0  0
   17.2323   -8.5300    1.4341 O   0  0  0  0  0  0  0  0  0  0  0  0
   14.1739   -9.2038    5.0697 O   0  0  0  0  0  0  0  0  0  0  0  0
   21.1819   -8.0222   -2.0455 S   0  0  0  0  0  0  0  0  0  0  0  0
  2  3  2  0
  1  4  1  0
  2  6  1  0
  3  7  1  0
  5  7  2  0
  6  8  2  0
  5  8  1  0
  9 12  1  0
 10 13  1  0
 13 14  1  0
  6 15  1  0
  9 15  2  0
  4 16  1  0
 11 16  1  0
 10 17  1  0
  7 17  1  0
 11 18  1  0
 14 18  1  0
 10 19  2  0
 11 20  2  0
  8 21  1  0
  9 21  1  0
M  END
$$$$
