2PQZ_G0G_A_2501_
     RDKit          3D

 39 43  0  0  0  0  0  0  0  0999 V2000
   11.2384  -22.8037  -17.1349 O   0  0  0  0  0  0  0  0  0  0  0  0
   11.1455  -22.5314  -18.5540 S   0  0  0  0  0  0  0  0  0  0  0  0
   11.4746  -20.8569  -18.8706 N   0  0  0  0  0  0  0  0  0  0  0  0
   10.9530  -20.3027  -20.1363 C   0  0  0  0  0  0  0  0  0  0  0  0
    9.6734  -19.4787  -20.0381 C   0  0  0  0  0  0  0  0  0  0  0  0
    8.6646  -19.7641  -19.0775 C   0  0  0  0  0  0  0  0  0  0  0  0
    7.4717  -18.9944  -19.0234 C   0  0  0  0  0  0  0  0  0  0  0  0
    7.2957  -17.9013  -19.9169 C   0  0  0  0  0  0  0  0  0  0  0  0
    8.2944  -17.6229  -20.8875 C   0  0  0  0  0  0  0  0  0  0  0  0
    9.4925  -18.3716  -20.9126 C   0  0  0  0  0  0  0  0  0  0  0  0
   12.3159  -20.0955  -17.9163 C   0  0  0  0  0  0  0  0  0  0  0  0
   13.6974  -19.7623  -18.5485 C   0  0  0  0  0  0  0  0  0  0  0  0
   13.9372  -18.3082  -18.4118 N   0  0  0  0  0  0  0  0  0  0  0  0
   12.6312  -17.6448  -18.1245 C   0  0  0  0  0  0  0  0  0  0  0  0
   11.7661  -18.6940  -17.3975 C   0  0  0  0  0  0  0  0  0  0  0  0
   12.0290  -18.7379  -15.8919 N   0  0  0  0  0  0  0  0  0  0  0  0
   10.6641  -19.0609  -14.9478 S   0  0  0  0  0  0  0  0  0  0  0  0
    9.8969  -20.1823  -15.5029 O   0  0  0  0  0  0  0  0  0  0  0  0
    9.6949  -17.6150  -14.8244 C   0  0  0  0  0  0  0  0  0  0  0  0
    8.3670  -17.6392  -15.3626 C   0  0  0  0  0  0  0  0  0  0  0  0
    7.5196  -16.5049  -15.2672 C   0  0  0  0  0  0  0  0  0  0  0  0
    8.0130  -15.3313  -14.6667 C   0  0  0  0  0  0  0  0  0  0  0  0
    9.3299  -15.3141  -14.1205 C   0  0  0  0  0  0  0  0  0  0  0  0
   10.1933  -16.4395  -14.2099 C   0  0  0  0  0  0  0  0  0  0  0  0
   11.0967  -19.1596  -13.5373 O   0  0  0  0  0  0  0  0  0  0  0  0
   13.3466  -18.5926  -15.1998 C   0  0  0  0  0  0  0  0  0  0  0  0
   14.1276  -19.9125  -15.0700 C   0  0  0  0  0  0  0  0  0  0  0  0
   13.4726  -21.0957  -14.6442 C   0  0  0  0  0  0  0  0  0  0  0  0
   14.2501  -22.2846  -14.5345 C   0  0  0  0  0  0  0  0  0  0  0  0
   15.6275  -22.3113  -14.8904 C   0  0  0  0  0  0  0  0  0  0  0  0
   16.3097  -21.1082  -15.2572 C   0  0  0  0  0  0  0  0  0  0  0  0
   15.5150  -19.9432  -15.4079 C   0  0  0  0  0  0  0  0  0  0  0  0
    9.9460  -22.8963  -19.3261 O   0  0  0  0  0  0  0  0  0  0  0  0
   12.5539  -23.1545  -19.4475 C   0  0  0  0  0  0  0  0  0  0  0  0
   13.7254  -23.5266  -18.7229 C   0  0  0  0  0  0  0  0  0  0  0  0
   14.8896  -23.9966  -19.4292 C   0  0  0  0  0  0  0  0  0  0  0  0
   14.8432  -24.1025  -20.8440 C   0  0  0  0  0  0  0  0  0  0  0  0
   13.6576  -23.7473  -21.5646 C   0  0  0  0  0  0  0  0  0  0  0  0
   12.5113  -23.3014  -20.8573 C   0  0  0  0  0  0  0  0  0  0  0  0
  1  2  2  0
  2  3  1  0
  3  4  1  0
  4  5  1  0
  5  6  2  0
  6  7  1  0
  7  8  2  0
  8  9  1  0
  5 10  1  0
  9 10  2  0
  3 11  1  0
 11 12  1  0
 12 13  1  0
 13 14  1  0
 11 15  1  0
 14 15  1  0
 15 16  1  0
 16 17  1  0
 17 18  2  0
 17 19  1  0
 19 20  2  0
 20 21  1  0
 21 22  2  0
 22 23  1  0
 19 24  1  0
 23 24  2  0
 17 25  2  0
 16 26  1  0
 26 27  1  0
 27 28  2  0
 28 29  1  0
 29 30  2  0
 30 31  1  0
 27 32  1  0
 31 32  2  0
  2 33  2  0
  2 34  1  0
 34 35  2  0
 35 36  1  0
 36 37  2  0
 37 38  1  0
 34 39  1  0
 38 39  2  0
M  END
$$$$
