1T48_BB3_A_299_
     RDKit          3D

 28 30  0  0  0  0  0  0  0  0999 V2000
   48.5765   30.9031   25.6553 Br  0  0  0  0  0  0  0  0  0  0  0  0
   50.4067   30.6623   25.3310 C   0  0  0  0  0  0  0  0  0  0  0  0
   51.2040   30.1919   26.4635 C   0  0  0  0  0  0  0  0  0  0  0  0
   50.7024   29.9765   27.5932 O   0  0  0  0  0  0  0  0  0  0  0  0
   52.6299   29.9775   26.2161 C   0  0  0  0  0  0  0  0  0  0  0  0
   53.6508   29.3721   27.6632 Br  0  0  0  0  0  0  0  0  0  0  0  0
   53.1832   30.2310   24.9687 C   0  0  0  0  0  0  0  0  0  0  0  0
   51.0069   30.8975   24.0925 C   0  0  0  0  0  0  0  0  0  0  0  0
   52.3811   30.6755   23.9175 C   0  0  0  0  0  0  0  0  0  0  0  0
   53.0189   30.9341   22.5845 C   0  0  0  0  0  0  0  0  0  0  0  0
   52.5108   31.7589   21.8298 O   0  0  0  0  0  0  0  0  0  0  0  0
   54.1334   30.3055   22.1901 C   0  0  0  0  0  0  0  0  0  0  0  0
   54.5989   29.0908   22.5389 C   0  0  0  0  0  0  0  0  0  0  0  0
   53.9504   28.0960   23.4642 C   0  0  0  0  0  0  0  0  0  0  0  0
   55.0572   27.5035   24.3296 C   0  0  0  0  0  0  0  0  0  0  0  0
   55.1410   30.8669   21.2411 C   0  0  0  0  0  0  0  0  0  0  0  0
   55.1994   32.0607   20.5456 C   0  0  0  0  0  0  0  0  0  0  0  0
   56.2061   29.8815   21.1486 C   0  0  0  0  0  0  0  0  0  0  0  0
   55.8921   28.8040   21.9281 O   0  0  0  0  0  0  0  0  0  0  0  0
   57.3206   30.0931   20.3675 C   0  0  0  0  0  0  0  0  0  0  0  0
   57.3701   31.2979   19.6679 C   0  0  0  0  0  0  0  0  0  0  0  0
   56.3388   32.2501   19.7657 C   0  0  0  0  0  0  0  0  0  0  0  0
   58.7402   31.6114   18.6581 S   0  0  0  0  0  0  0  0  0  0  0  0
   59.1171   30.4347   17.9278 O   0  0  0  0  0  0  0  0  0  0  0  0
   58.3913   32.6975   17.7122 O   0  0  0  0  0  0  0  0  0  0  0  0
   60.0689   32.0965   19.6345 N   0  0  0  0  0  0  0  0  0  0  0  0
   59.8183   32.8780   20.8321 C   0  0  0  0  0  0  0  0  0  0  0  0
   61.4288   31.7292   19.2704 C   0  0  0  0  0  0  0  0  0  0  0  0
  1  2  1  0
  2  3  2  0
  3  4  1  0
  3  5  1  0
  5  6  1  0
  5  7  2  0
  2  8  1  0
  7  9  1  0
  8  9  2  0
  9 10  1  0
 10 11  2  0
 10 12  1  0
 12 13  2  0
 13 14  1  0
 14 15  1  0
 12 16  1  0
 16 17  2  0
 16 18  1  0
 13 19  1  0
 18 19  1  0
 18 20  2  0
 20 21  1  0
 17 22  1  0
 21 22  2  0
 21 23  1  0
 23 24  2  0
 23 25  2  0
 23 26  1  0
 26 27  1  0
 26 28  1  0
M  END
$$$$
