3RIK_3RI_D_501_
     RDKit          3D

 14 14  0  0  0  0  0  0  0  0999 V2000
   32.2726   28.1474   -0.1631 O   0  0  0  0  0  0  0  0  0  0  0  0
   33.7504   33.8382    0.6191 O   0  0  0  0  0  0  0  0  0  0  0  0
   37.1682   29.4458    1.7110 O   0  0  0  0  0  0  0  0  0  0  0  0
   35.7177   33.9626    2.3795 O   0  0  0  0  0  0  0  0  0  0  0  0
   37.6688   32.1432    2.6157 O   0  0  0  0  0  0  0  0  0  0  0  0
   32.4635   29.4554   -0.7367 C   0  0  0  0  0  0  0  0  0  0  0  0
   33.9339   29.6836   -1.1528 C   0  0  0  0  0  0  0  0  0  0  0  0
   34.4179   31.8856   -0.3892 C   0  0  0  0  0  0  0  0  0  0  0  0
   36.0977   30.2632   -0.2882 C   0  0  0  0  0  0  0  0  0  0  0  0
   34.3375   32.6070    0.9351 C   0  0  0  0  0  0  0  0  0  0  0  0
   36.9188   30.6189    0.9605 C   0  0  0  0  0  0  0  0  0  0  0  0
   35.7443   32.9166    1.4042 C   0  0  0  0  0  0  0  0  0  0  0  0
   36.4635   31.6771    1.9791 C   0  0  0  0  0  0  0  0  0  0  0  0
   34.6633   30.4629   -0.1352 N   0  0  0  0  0  0  0  0  0  0  0  0
  1  6  1  0
  6  7  1  0
  2 10  1  0
  8 10  1  0
  3 11  1  0
  9 11  1  0
  4 12  1  0
 10 12  1  0
  5 13  1  0
 11 13  1  0
 12 13  1  0
  7 14  1  0
  8 14  1  0
  9 14  1  0
M  END
$$$$
