2AJL_JNH_I_1_
     RDKit          3D

 24 26  0  0  0  0  0  0  0  0999 V2000
  111.4360  -77.8720  -54.5300 N   0  0  0  0  0  0  0  0  0  0  0  0
  111.8970  -78.6710  -55.6500 C   0  0  0  0  0  0  0  0  0  0  0  0
  112.9700  -77.7680  -56.2170 C   0  0  0  0  0  0  0  0  0  0  0  0
  112.3440  -76.4060  -56.0210 C   0  0  0  0  0  0  0  0  0  0  0  0
  111.9190  -76.5330  -54.5830 C   0  0  0  0  0  0  0  0  0  0  0  0
  110.3970  -78.2460  -53.7940 C   0  0  0  0  0  0  0  0  0  0  0  0
  110.2140  -77.3510  -52.5820 C   0  0  0  0  0  0  0  0  0  0  0  0
  109.6850  -79.2100  -54.0640 O   0  0  0  0  0  0  0  0  0  0  0  0
  108.8180  -76.9090  -52.4810 N   0  0  0  0  0  0  0  0  0  0  0  0
  110.6220  -78.2600  -51.4130 C   0  0  0  0  0  0  0  0  0  0  0  0
  110.0470  -76.7200  -47.3950 C   0  0  0  0  0  0  0  0  0  0  0  0
  108.9310  -77.0970  -48.1690 C   0  0  0  0  0  0  0  0  0  0  0  0
  109.0960  -77.6010  -49.4730 C   0  0  0  0  0  0  0  0  0  0  0  0
  110.4040  -77.7100  -50.0140 C   0  0  0  0  0  0  0  0  0  0  0  0
  111.5330  -77.3560  -49.2720 C   0  0  0  0  0  0  0  0  0  0  0  0
  111.3320  -76.8610  -47.9780 C   0  0  0  0  0  0  0  0  0  0  0  0
  109.6580  -75.1680  -43.4050 C   0  0  0  0  0  0  0  0  0  0  0  0
  108.4970  -75.3570  -44.1960 C   0  0  0  0  0  0  0  0  0  0  0  0
  108.6260  -75.8780  -45.5180 C   0  0  0  0  0  0  0  0  0  0  0  0
  109.9070  -76.2130  -46.0680 C   0  0  0  0  0  0  0  0  0  0  0  0
  111.0520  -76.0150  -45.2190 C   0  0  0  0  0  0  0  0  0  0  0  0
  110.9380  -75.4980  -43.9040 C   0  0  0  0  0  0  0  0  0  0  0  0
  112.4500  -80.0580  -55.5000 C   0  0  0  0  0  0  0  0  0  0  0  0
  112.4210  -80.8840  -54.5080 N   0  0  0  0  0  0  0  0  0  0  0  0
  1  2  1  0
  2  3  1  0
  3  4  1  0
  1  5  1  0
  4  5  1  0
  1  6  1  0
  6  7  1  0
  6  8  2  0
  7  9  1  0
  7 10  1  0
 11 12  2  0
 12 13  1  0
 10 14  1  0
 13 14  2  0
 14 15  1  0
 11 16  1  0
 15 16  2  0
 17 18  2  0
 18 19  1  0
 11 20  1  0
 19 20  2  0
 20 21  1  0
 17 22  1  0
 21 22  2  0
  2 23  1  0
 23 24  1  0
M  END
$$$$
