3ADT_HID_A_2_
     RDKit          3D

 14 15  0  0  0  0  0  0  0  0999 V2000
   18.2340   65.5311   20.1847 O   0  0  0  0  0  0  0  0  0  0  0  0
   18.8879   63.5921   19.3617 O   0  0  0  0  0  0  0  0  0  0  0  0
   14.9489   63.4378   14.9213 O   0  0  0  0  0  0  0  0  0  0  0  0
   17.0105   62.9221   13.7731 C   0  0  0  0  0  0  0  0  0  0  0  0
   18.4418   62.9918   13.7043 C   0  0  0  0  0  0  0  0  0  0  0  0
   20.6050   64.5698   16.0916 C   0  0  0  0  0  0  0  0  0  0  0  0
   17.0164   64.1904   15.9234 C   0  0  0  0  0  0  0  0  0  0  0  0
   19.1483   65.5907   17.9992 C   0  0  0  0  0  0  0  0  0  0  0  0
   20.4355   63.8831   14.9569 N   0  0  0  0  0  0  0  0  0  0  0  0
   18.7282   64.8315   19.2812 C   0  0  0  0  0  0  0  0  0  0  0  0
   16.3099   63.5180   14.8757 C   0  0  0  0  0  0  0  0  0  0  0  0
   19.4235   64.8255   16.6786 C   0  0  0  0  0  0  0  0  0  0  0  0
   19.1352   63.6672   14.7597 C   0  0  0  0  0  0  0  0  0  0  0  0
   18.4446   64.2661   15.8635 C   0  0  0  0  0  0  0  0  0  0  0  0
  4  5  2  0
  6  9  1  0
  1 10  2  0
  2 10  1  0
  8 10  1  0
  3 11  1  0
  4 11  1  0
  7 11  2  0
  6 12  2  0
  8 12  1  0
  5 13  1  0
  9 13  1  0
  7 14  1  0
 12 14  1  0
 13 14  2  0
M  END
$$$$
