2RG5_279_A_501_
     RDKit          3D

 28 30  0  0  0  0  0  0  0  0999 V2000
   -3.4612   35.3532   23.7628 C   0  0  0  0  0  0  0  0  0  0  0  0
   -4.5145   35.8172   22.9475 C   0  0  0  0  0  0  0  0  0  0  0  0
   -1.8650   36.2481   22.2119 C   0  0  0  0  0  0  0  0  0  0  0  0
   -1.4018   37.7010   15.7384 C   0  0  0  0  0  0  0  0  0  0  0  0
   -2.1221   35.5636   23.3894 C   0  0  0  0  0  0  0  0  0  0  0  0
   -1.4234   38.9819   16.2601 C   0  0  0  0  0  0  0  0  0  0  0  0
   -4.2364   36.5025   21.7523 C   0  0  0  0  0  0  0  0  0  0  0  0
   -1.7678   38.8650   17.6511 C   0  0  0  0  0  0  0  0  0  0  0  0
   -2.8990   36.7130   21.3982 C   0  0  0  0  0  0  0  0  0  0  0  0
   -1.9529   37.5107   17.8838 C   0  0  0  0  0  0  0  0  0  0  0  0
   -2.1262   34.8407   17.6996 C   0  0  0  0  0  0  0  0  0  0  0  0
   -2.3072   36.7481   19.0426 C   0  0  0  0  0  0  0  0  0  0  0  0
   -0.9114   35.1389   24.1563 C   0  0  0  0  0  0  0  0  0  0  0  0
   -1.1060   40.1843   15.5050 C   0  0  0  0  0  0  0  0  0  0  0  0
   -5.3329   37.0163   20.8658 C   0  0  0  0  0  0  0  0  0  0  0  0
   -1.9204   39.9834   18.6262 C   0  0  0  0  0  0  0  0  0  0  0  0
    1.3734   41.4906   13.9070 C   0  0  0  0  0  0  0  0  0  0  0  0
    0.8064   33.9731   26.6096 C   0  0  0  0  0  0  0  0  0  0  0  0
    0.0191   40.9679   13.4559 C   0  0  0  0  0  0  0  0  0  0  0  0
   -1.8157   35.4571   16.5995 N   0  0  0  0  0  0  0  0  0  0  0  0
   -2.3685   35.4406   18.9163 N   0  0  0  0  0  0  0  0  0  0  0  0
   -1.7345   36.8187   16.7262 N   0  0  0  0  0  0  0  0  0  0  0  0
   -2.5572   37.3966   20.2269 N   0  0  0  0  0  0  0  0  0  0  0  0
   -0.4040   39.9194   14.3485 N   0  0  0  0  0  0  0  0  0  0  0  0
   -1.0563   34.2677   25.2242 N   0  0  0  0  0  0  0  0  0  0  0  0
    0.1750   35.5931   23.8003 O   0  0  0  0  0  0  0  0  0  0  0  0
   -1.4175   41.3114   15.8762 O   0  0  0  0  0  0  0  0  0  0  0  0
    0.1358   33.5018   25.4426 O   0  0  0  0  0  0  0  0  0  0  0  0
  1  2  2  0
  1  5  1  0
  3  5  2  0
  4  6  2  0
  2  7  1  0
  6  8  1  0
  3  9  1  0
  7  9  2  0
  8 10  2  0
 10 12  1  0
  5 13  1  0
  6 14  1  0
  7 15  1  0
  8 16  1  0
 17 19  1  0
 11 20  2  0
 12 21  2  0
 11 21  1  0
 10 22  1  0
 20 22  1  0
  4 22  1  0
  9 23  1  0
 12 23  1  0
 14 24  1  0
 19 24  1  0
 13 25  1  0
 13 26  2  0
 14 27  2  0
 18 28  1  0
 25 28  1  0
M  END
$$$$
