3ZSZ_OM2_B_1216_
     RDKit          3D

 29 31  0  0  0  0  0  0  0  0999 V2000
  -36.4493   33.1778  -18.8303 C   0  0  0  0  0  0  0  0  0  0  0  0
  -36.2460   31.9691  -18.2024 C   0  0  0  0  0  0  0  0  0  0  0  0
  -36.7838   34.2940  -18.1014 C   0  0  0  0  0  0  0  0  0  0  0  0
  -36.3712   31.8823  -16.8334 C   0  0  0  0  0  0  0  0  0  0  0  0
  -33.2803   32.4723  -11.5955 C   0  0  0  0  0  0  0  0  0  0  0  0
  -32.4217   32.9713  -10.6211 C   0  0  0  0  0  0  0  0  0  0  0  0
  -36.9161   34.1973  -16.7316 C   0  0  0  0  0  0  0  0  0  0  0  0
  -32.8130   34.3474  -13.0376 C   0  0  0  0  0  0  0  0  0  0  0  0
  -36.7099   32.9890  -16.0797 C   0  0  0  0  0  0  0  0  0  0  0  0
  -33.4792   33.1513  -12.8010 C   0  0  0  0  0  0  0  0  0  0  0  0
  -31.7717   34.1580  -10.8700 C   0  0  0  0  0  0  0  0  0  0  0  0
  -31.9599   34.8150  -12.0430 C   0  0  0  0  0  0  0  0  0  0  0  0
  -37.2885   35.4449  -16.0344 C   0  0  0  0  0  0  0  0  0  0  0  0
  -32.9908   35.0871  -14.3216 C   0  0  0  0  0  0  0  0  0  0  0  0
  -30.4305   35.8154  -10.8957 C   0  0  0  0  0  0  0  0  0  0  0  0
  -38.8218   37.1958  -11.7042 C   0  0  0  0  0  0  0  0  0  0  0  0
  -36.4810   37.3708  -13.8915 C   0  0  0  0  0  0  0  0  0  0  0  0
  -36.2226   33.7509  -12.4263 C   0  0  0  0  0  0  0  0  0  0  0  0
  -36.8356   32.8090  -14.5890 C   0  0  0  0  0  0  0  0  0  0  0  0
  -34.4244   32.6131  -13.8346 C   0  0  0  0  0  0  0  0  0  0  0  0
  -38.8757   36.8243  -13.1941 C   0  0  0  0  0  0  0  0  0  0  0  0
  -37.5188   36.2665  -13.6131 C   0  0  0  0  0  0  0  0  0  0  0  0
  -37.6535   35.3047  -14.6981 N   0  0  0  0  0  0  0  0  0  0  0  0
  -35.7224   33.3917  -13.7940 N   0  0  0  0  0  0  0  0  0  0  0  0
  -31.9643   35.6435  -14.7649 O   0  0  0  0  0  0  0  0  0  0  0  0
  -37.3153   36.4862  -16.6802 O   0  0  0  0  0  0  0  0  0  0  0  0
  -34.1114   35.0712  -14.8981 O   0  0  0  0  0  0  0  0  0  0  0  0
  -30.8967   34.7945  -10.0401 O   0  0  0  0  0  0  0  0  0  0  0  0
  -31.2207   35.9669  -12.0796 O   0  0  0  0  0  0  0  0  0  0  0  0
  1  2  2  0
  1  3  1  0
  2  4  1  0
  5  6  2  0
  3  7  2  0
  4  9  2  0
  7  9  1  0
  5 10  1  0
  8 10  2  0
  6 11  1  0
  8 12  1  0
 11 12  2  0
  7 13  1  0
  8 14  1  0
  9 19  1  0
 10 20  1  0
 16 21  1  0
 17 22  1  0
 21 22  1  0
 13 23  1  0
 22 23  1  0
 18 24  1  0
 19 24  1  0
 20 24  1  0
 14 25  2  0
 13 26  2  0
 14 27  1  0
 11 28  1  0
 15 28  1  0
 12 29  1  0
 15 29  1  0
M  CHG  1  24   1
M  END
$$$$
