3ZSO_O2N_B_1217_
     RDKit          3D

 44 48  0  0  0  0  0  0  0  0999 V2000
  -36.5050   34.0180  -18.9360 C   0  0  0  0  0  0  0  0  0  0  0  0
  -36.6050   35.2200  -18.2820 C   0  0  0  0  0  0  0  0  0  0  0  0
  -36.6370   32.8390  -18.2110 C   0  0  0  0  0  0  0  0  0  0  0  0
  -36.8310   35.2900  -16.9220 C   0  0  0  0  0  0  0  0  0  0  0  0
  -33.9190   32.7890  -11.5090 C   0  0  0  0  0  0  0  0  0  0  0  0
  -35.1950   29.0360  -13.1780 C   0  0  0  0  0  0  0  0  0  0  0  0
  -33.6250   30.0300  -14.6700 C   0  0  0  0  0  0  0  0  0  0  0  0
  -36.8900   27.5040  -16.7200 C   0  0  0  0  0  0  0  0  0  0  0  0
  -34.7100   28.0570  -17.4350 C   0  0  0  0  0  0  0  0  0  0  0  0
  -32.9370   33.0880  -10.5230 C   0  0  0  0  0  0  0  0  0  0  0  0
  -34.2830   29.0640  -12.1020 C   0  0  0  0  0  0  0  0  0  0  0  0
  -32.6670   30.0530  -13.6500 C   0  0  0  0  0  0  0  0  0  0  0  0
  -36.8750   26.4640  -17.6380 C   0  0  0  0  0  0  0  0  0  0  0  0
  -34.6320   26.9820  -18.3740 C   0  0  0  0  0  0  0  0  0  0  0  0
  -36.8700   32.8990  -16.8530 C   0  0  0  0  0  0  0  0  0  0  0  0
  -33.1240   34.5700  -12.9820 C   0  0  0  0  0  0  0  0  0  0  0  0
  -34.8870   29.5100  -14.4540 C   0  0  0  0  0  0  0  0  0  0  0  0
  -35.7800   28.3220  -16.5910 C   0  0  0  0  0  0  0  0  0  0  0  0
  -36.9580   34.1220  -16.1960 C   0  0  0  0  0  0  0  0  0  0  0  0
  -34.0120   33.5130  -12.7250 C   0  0  0  0  0  0  0  0  0  0  0  0
  -32.1040   34.1300  -10.8000 C   0  0  0  0  0  0  0  0  0  0  0  0
  -32.1810   34.8380  -11.9820 C   0  0  0  0  0  0  0  0  0  0  0  0
  -32.9890   29.5510  -12.3940 C   0  0  0  0  0  0  0  0  0  0  0  0
  -35.7690   26.2060  -18.4450 C   0  0  0  0  0  0  0  0  0  0  0  0
  -38.5290   34.0290  -11.3650 C   0  0  0  0  0  0  0  0  0  0  0  0
  -37.2500   33.8350  -11.7300 C   0  0  0  0  0  0  0  0  0  0  0  0
  -37.0130   31.6380  -16.1450 C   0  0  0  0  0  0  0  0  0  0  0  0
  -33.0820   35.3740  -14.2490 C   0  0  0  0  0  0  0  0  0  0  0  0
  -30.5130   35.6060  -10.8060 C   0  0  0  0  0  0  0  0  0  0  0  0
  -30.6800   29.4200  -11.6560 C   0  0  0  0  0  0  0  0  0  0  0  0
  -34.9790   25.1110  -20.3720 C   0  0  0  0  0  0  0  0  0  0  0  0
  -37.2330   34.2390  -14.7340 C   0  0  0  0  0  0  0  0  0  0  0  0
  -35.0500   33.2190  -13.7840 C   0  0  0  0  0  0  0  0  0  0  0  0
  -36.4950   34.8780  -12.5100 C   0  0  0  0  0  0  0  0  0  0  0  0
  -35.9400   29.4640  -15.5730 C   0  0  0  0  0  0  0  0  0  0  0  0
  -36.0010   30.7200  -16.3440 N   0  0  0  0  0  0  0  0  0  0  0  0
  -36.0230   34.4310  -13.8580 N   0  0  0  0  0  0  0  0  0  0  0  0
  -34.1050   35.6120  -14.9650 O   0  0  0  0  0  0  0  0  0  0  0  0
  -37.9710   31.4230  -15.4180 O   0  0  0  0  0  0  0  0  0  0  0  0
  -31.9250   35.7300  -14.6180 O   0  0  0  0  0  0  0  0  0  0  0  0
  -31.1070   34.5990   -9.9970 O   0  0  0  0  0  0  0  0  0  0  0  0
  -31.2460   35.8450  -12.0280 O   0  0  0  0  0  0  0  0  0  0  0  0
  -32.0720   29.5590  -11.3290 O   0  0  0  0  0  0  0  0  0  0  0  0
  -35.9230   25.1230  -19.3030 O   0  0  0  0  0  0  0  0  0  0  0  0
  1  2  2  0
  1  3  1  0
  2  4  1  0
  5 10  2  0
  6 11  2  0
  7 12  1  0
  8 13  2  0
  9 14  1  0
  3 15  2  0
  6 17  1  0
  7 17  2  0
  8 18  1  0
  9 18  2  0
  4 19  2  0
 15 19  1  0
  5 20  1  0
 16 20  2  0
 10 21  1  0
 16 22  1  0
 21 22  2  0
 11 23  1  0
 12 23  2  0
 13 24  1  0
 14 24  2  0
 25 26  2  0
 15 27  1  0
 16 28  1  0
 19 32  1  0
 20 33  1  0
 26 34  1  0
 17 35  1  0
 18 35  1  0
 27 36  1  0
 35 36  1  0
 32 37  1  0
 33 37  1  0
 34 37  1  0
 28 38  1  0
 27 39  2  0
 28 40  2  0
 21 41  1  0
 29 41  1  0
 22 42  1  0
 29 42  1  0
 23 43  1  0
 30 43  1  0
 24 44  1  0
 31 44  1  0
M  END
$$$$
