3QPN_PFK_A_999_
     RDKit          3D

 25 28  0  0  0  0  0  0  0  0999 V2000
    6.1786   17.5814   35.5499 C   0  0  0  0  0  0  0  0  0  0  0  0
    6.5679   16.2900   35.9074 C   0  0  0  0  0  0  0  0  0  0  0  0
    7.6524   16.0921   36.7582 C   0  0  0  0  0  0  0  0  0  0  0  0
    8.3704   17.2027   37.2445 C   0  0  0  0  0  0  0  0  0  0  0  0
    7.9810   18.5130   36.8920 C   0  0  0  0  0  0  0  0  0  0  0  0
    6.8987   18.6850   36.0211 C   0  0  0  0  0  0  0  0  0  0  0  0
    9.4380   17.0117   38.0582 N   0  0  0  0  0  0  0  0  0  0  0  0
   10.1461   18.0682   38.5693 C   0  0  0  0  0  0  0  0  0  0  0  0
    9.7997   19.3877   38.2190 C   0  0  0  0  0  0  0  0  0  0  0  0
    8.7000   19.6286   37.3803 C   0  0  0  0  0  0  0  0  0  0  0  0
   11.3517   17.7956   39.4664 C   0  0  0  0  0  0  0  0  0  0  0  0
   11.0187   17.3692   40.8942 C   0  0  0  0  0  0  0  0  0  0  0  0
   12.2402   16.9104   41.4499 O   0  0  0  0  0  0  0  0  0  0  0  0
   12.5866   17.0677   42.7696 C   0  0  0  0  0  0  0  0  0  0  0  0
   12.0249   18.0840   43.5167 C   0  0  0  0  0  0  0  0  0  0  0  0
   12.3841   18.2643   44.8495 C   0  0  0  0  0  0  0  0  0  0  0  0
   13.3150   17.4234   45.4242 C   0  0  0  0  0  0  0  0  0  0  0  0
   13.9136   16.4033   44.6802 C   0  0  0  0  0  0  0  0  0  0  0  0
   13.5444   16.2319   43.3424 C   0  0  0  0  0  0  0  0  0  0  0  0
   14.0960   15.2267   42.5842 O   0  0  0  0  0  0  0  0  0  0  0  0
   15.2421   14.4909   43.0180 C   0  0  0  0  0  0  0  0  0  0  0  0
   11.8096   19.2686   45.5716 N   0  0  0  0  0  0  0  0  0  0  0  0
   12.1609   19.4660   46.8484 C   0  0  0  0  0  0  0  0  0  0  0  0
   13.0687   18.6550   47.4261 N   0  0  0  0  0  0  0  0  0  0  0  0
   13.6650   17.6477   46.7631 C   0  0  0  0  0  0  0  0  0  0  0  0
  1  2  2  0
  2  3  1  0
  3  4  2  0
  4  5  1  0
  1  6  1  0
  5  6  2  0
  4  7  1  0
  7  8  2  0
  8  9  1  0
  5 10  1  0
  9 10  2  0
  8 11  1  0
 11 12  1  0
 12 13  1  0
 13 14  1  0
 14 15  2  0
 15 16  1  0
 16 17  2  0
 17 18  1  0
 14 19  1  0
 18 19  2  0
 19 20  1  0
 20 21  1  0
 16 22  1  0
 22 23  2  0
 23 24  1  0
 17 25  1  0
 24 25  2  0
M  END
$$$$
