2QO8_3CC_A_800_
     RDKit          3D

 23 24  0  0  0  0  0  0  0  0999 V2000
   -4.1360    2.5460   15.0980 C   0  0  0  0  0  0  0  0  0  0  0  0
   -5.3780    2.4270   15.7410 C   0  0  0  0  0  0  0  0  0  0  0  0
   -6.3370    3.4800   15.7110 C   0  0  0  0  0  0  0  0  0  0  0  0
   -6.0410    4.6680   15.0240 C   0  0  0  0  0  0  0  0  0  0  0  0
   -3.8470    3.7650   14.4010 C   0  0  0  0  0  0  0  0  0  0  0  0
   -4.8280    4.7930   14.3920 C   0  0  0  0  0  0  0  0  0  0  0  0
   -4.2810    5.9060   13.6180 C   0  0  0  0  0  0  0  0  0  0  0  0
   -3.2090    5.3530   12.8240 C   0  0  0  0  0  0  0  0  0  0  0  0
   -2.6640    4.2220   13.6290 C   0  0  0  0  0  0  0  0  0  0  0  0
   -5.8200    0.9510   16.6350 S   0  0  0  0  0  0  0  0  0  0  0  0
   -5.2710    1.0780   17.9540 O   0  0  0  0  0  0  0  0  0  0  0  0
   -7.2490    0.8090   16.5010 O   0  0  0  0  0  0  0  0  0  0  0  0
   -5.1460   -0.3060   15.9840 N   0  0  0  0  0  0  0  0  0  0  0  0
   -2.1590    6.3770   12.5290 N   0  0  0  0  0  0  0  0  0  0  0  0
   -2.3190    7.4950   11.7640 C   0  0  0  0  0  0  0  0  0  0  0  0
   -3.4470    7.6510   11.2820 O   0  0  0  0  0  0  0  0  0  0  0  0
   -1.2010    8.5590   11.4660 C   0  0  0  0  0  0  0  0  0  0  0  0
   -0.5330    9.0940   12.7750 C   0  0  0  0  0  0  0  0  0  0  0  0
   -1.4750    9.6020   13.8930 C   0  0  0  0  0  0  0  0  0  0  0  0
   -0.8660    9.3860   15.2820 C   0  0  0  0  0  0  0  0  0  0  0  0
   -0.1390    7.9690   10.4650 C   0  0  0  0  0  0  0  0  0  0  0  0
   -0.6710    7.3110    9.1660 C   0  0  0  0  0  0  0  0  0  0  0  0
   -0.6590    8.2810    7.9780 C   0  0  0  0  0  0  0  0  0  0  0  0
  1  2  2  0
  2  3  1  0
  3  4  2  0
  1  5  1  0
  5  6  2  0
  4  6  1  0
  6  7  1  0
  7  8  1  0
  8  9  1  0
  5  9  1  0
  2 10  1  0
 10 11  2  0
 10 12  2  0
 10 13  1  0
  8 14  1  0
 14 15  1  0
 15 16  2  0
 15 17  1  0
 17 18  1  0
 18 19  1  0
 19 20  1  0
 17 21  1  0
 21 22  1  0
 22 23  1  0
M  END
$$$$
