2NNS_M25_A_301_
     RDKit          3D

 16 16  0  0  0  0  0  0  0  0999 V2000
   -5.1538    2.2752   15.6542 C   0  0  0  0  0  0  0  0  0  0  0  0
   -3.8157    2.2720   15.2869 C   0  0  0  0  0  0  0  0  0  0  0  0
   -3.3351    3.3468   14.5347 C   0  0  0  0  0  0  0  0  0  0  0  0
   -4.1425    4.4237   14.1537 C   0  0  0  0  0  0  0  0  0  0  0  0
   -5.4727    4.3848   14.5162 C   0  0  0  0  0  0  0  0  0  0  0  0
   -6.0173    3.3331   15.2645 C   0  0  0  0  0  0  0  0  0  0  0  0
   -5.8295    0.9334   16.6266 S   0  0  0  0  0  0  0  0  0  0  0  0
   -7.2776    1.0205   16.5101 O   0  0  0  0  0  0  0  0  0  0  0  0
   -5.2547    1.1098   17.9707 O   0  0  0  0  0  0  0  0  0  0  0  0
   -5.3734   -0.4464   15.9703 N   0  0  0  0  0  0  0  0  0  0  0  0
   -3.6112    5.5150   13.2674 C   0  0  0  0  0  0  0  0  0  0  0  0
   -2.6560    6.4539   14.0354 C   0  0  0  0  0  0  0  0  0  0  0  0
   -2.2545    7.5816   13.1992 N   0  0  0  0  0  0  0  0  0  0  0  0
   -1.4790    8.5731   13.6415 C   0  0  0  0  0  0  0  0  0  0  0  0
   -1.1839    9.6677   12.6628 C   0  0  0  0  0  0  0  0  0  0  0  0
   -1.0181    8.5652   14.7964 O   0  0  0  0  0  0  0  0  0  0  0  0
  1  2  2  0
  2  3  1  0
  3  4  2  0
  4  5  1  0
  1  6  1  0
  5  6  2  0
  1  7  1  0
  7  8  2  0
  7  9  2  0
  7 10  1  0
  4 11  1  0
 11 12  1  0
 12 13  1  0
 13 14  1  0
 14 15  1  0
 14 16  2  0
M  END
$$$$
