3DX3_YTB_A_1050_
     RDKit          3D

 10 10  0  0  0  0  0  0  0  0999 V2000
   29.4841   66.0722    6.9783 O   0  0  0  0  0  0  0  0  0  0  0  0
   30.8732   65.9704    7.3339 C   0  0  0  0  0  0  0  0  0  0  0  0
   31.6130   67.2319    6.9519 C   0  0  0  0  0  0  0  0  0  0  0  0
   31.6677   67.5099    5.5459 O   0  0  0  0  0  0  0  0  0  0  0  0
   32.9740   67.0251    7.6122 C   0  0  0  0  0  0  0  0  0  0  0  0
   33.7210   66.0559    6.8591 O   0  0  0  0  0  0  0  0  0  0  0  0
   31.1542   65.9263    8.8286 C   0  0  0  0  0  0  0  0  0  0  0  0
   30.9952   64.5846    9.3928 N   0  0  0  0  0  0  0  0  0  0  0  0
   32.5906   66.4371    8.9863 C   0  0  0  0  0  0  0  0  0  0  0  0
   33.4903   65.4031    9.4409 O   0  0  0  0  0  0  0  0  0  0  0  0
  1  2  1  0
  2  3  1  0
  3  4  1  0
  3  5  1  0
  5  6  1  0
  2  7  1  0
  7  8  1  0
  5  9  1  0
  7  9  1  0
  9 10  1  0
M  END
$$$$
