3CJ5_SX6_B_571_
     RDKit          3D

 30 32  0  0  0  0  0  0  0  0999 V2000
  -38.6980   70.4290   28.5480 O   0  0  0  0  0  0  0  0  0  0  0  0
  -39.3260   71.4890   28.6300 C   0  0  0  0  0  0  0  0  0  0  0  0
  -40.6290   71.5970   28.1630 N   0  0  0  0  0  0  0  0  0  0  0  0
  -41.4510   70.5430   27.5280 C   0  0  0  0  0  0  0  0  0  0  0  0
  -42.1560   71.0570   26.2570 C   0  0  0  0  0  0  0  0  0  0  0  0
  -42.8760   72.2870   26.4970 O   0  0  0  0  0  0  0  0  0  0  0  0
  -42.0410   73.3230   27.0410 C   0  0  0  0  0  0  0  0  0  0  0  0
  -41.4370   72.8270   28.3620 C   0  0  0  0  0  0  0  0  0  0  0  0
  -38.7490   72.7630   29.2390 C   0  0  0  0  0  0  0  0  0  0  0  0
  -37.2460   72.7520   29.4820 C   0  0  0  0  0  0  0  0  0  0  0  0
  -36.8980   71.8420   30.6420 C   0  0  0  0  0  0  0  0  0  0  0  0
  -37.4530   71.9100   31.7450 O   0  0  0  0  0  0  0  0  0  0  0  0
  -35.9070   70.9440   30.2890 N   0  0  0  0  0  0  0  0  0  0  0  0
  -35.3990   69.9850   31.1860 C   0  0  0  0  0  0  0  0  0  0  0  0
  -36.2760   69.1080   31.8400 C   0  0  0  0  0  0  0  0  0  0  0  0
  -35.8030   68.1650   32.7540 C   0  0  0  0  0  0  0  0  0  0  0  0
  -34.4330   68.0980   32.9970 C   0  0  0  0  0  0  0  0  0  0  0  0
  -33.7610   66.8360   34.2330 Br  0  0  0  0  0  0  0  0  0  0  0  0
  -33.5390   68.9550   32.3600 C   0  0  0  0  0  0  0  0  0  0  0  0
  -34.0050   69.9130   31.4590 C   0  0  0  0  0  0  0  0  0  0  0  0
  -32.9740   70.7730   30.8010 C   0  0  0  0  0  0  0  0  0  0  0  0
  -32.1230   70.1820   30.1350 O   0  0  0  0  0  0  0  0  0  0  0  0
  -32.9150   72.1600   30.8860 N   0  0  0  0  0  0  0  0  0  0  0  0
  -31.8800   72.9450   30.2090 C   0  0  0  0  0  0  0  0  0  0  0  0
  -30.8770   73.5290   31.1950 C   0  0  0  0  0  0  0  0  0  0  0  0
  -29.7760   74.2940   30.4500 C   0  0  0  0  0  0  0  0  0  0  0  0
  -31.6020   74.3690   32.2550 C   0  0  0  0  0  0  0  0  0  0  0  0
  -33.6470   72.8960   31.9270 C   0  0  0  0  0  0  0  0  0  0  0  0
  -32.7310   73.5850   32.9390 C   0  0  0  0  0  0  0  0  0  0  0  0
  -33.5490   74.4500   33.8960 C   0  0  0  0  0  0  0  0  0  0  0  0
  1  2  2  0
  2  3  1  0
  3  4  1  0
  4  5  1  0
  5  6  1  0
  6  7  1  0
  3  8  1  0
  7  8  1  0
  2  9  1  0
  9 10  1  0
 10 11  1  0
 11 12  2  0
 11 13  1  0
 13 14  1  0
 14 15  2  0
 15 16  1  0
 16 17  2  0
 17 18  1  0
 17 19  1  0
 14 20  1  0
 19 20  2  0
 20 21  1  0
 21 22  2  0
 21 23  1  0
 23 24  1  0
 24 25  1  0
 25 26  1  0
 25 27  1  0
 23 28  1  0
 27 29  1  0
 28 29  1  0
 29 30  1  0
M  END
$$$$
