3CJ2_SX3_A_571_
     RDKit          3D

 18 19  0  0  0  0  0  0  0  0999 V2000
  -33.7894   66.8806   34.3029 Br  0  0  0  0  0  0  0  0  0  0  0  0
  -34.4118   68.0764   32.9743 C   0  0  0  0  0  0  0  0  0  0  0  0
  -33.4733   68.9101   32.3571 C   0  0  0  0  0  0  0  0  0  0  0  0
  -35.7690   68.1267   32.6359 C   0  0  0  0  0  0  0  0  0  0  0  0
  -36.1807   69.0496   31.6550 C   0  0  0  0  0  0  0  0  0  0  0  0
  -35.2591   69.8976   31.0030 C   0  0  0  0  0  0  0  0  0  0  0  0
  -35.7330   70.7799   30.0185 N   0  0  0  0  0  0  0  0  0  0  0  0
  -33.8893   69.8205   31.3762 C   0  0  0  0  0  0  0  0  0  0  0  0
  -32.8214   70.6350   30.7452 C   0  0  0  0  0  0  0  0  0  0  0  0
  -32.0264   69.9955   30.0565 O   0  0  0  0  0  0  0  0  0  0  0  0
  -32.6846   72.0291   30.8446 N   0  0  0  0  0  0  0  0  0  0  0  0
  -33.4995   72.7650   31.8188 C   0  0  0  0  0  0  0  0  0  0  0  0
  -32.6746   73.5691   32.8147 C   0  0  0  0  0  0  0  0  0  0  0  0
  -33.6128   74.3571   33.7037 C   0  0  0  0  0  0  0  0  0  0  0  0
  -31.7009   74.4815   32.0830 C   0  0  0  0  0  0  0  0  0  0  0  0
  -31.5671   72.7810   30.2382 C   0  0  0  0  0  0  0  0  0  0  0  0
  -30.7813   73.6761   31.1747 C   0  0  0  0  0  0  0  0  0  0  0  0
  -29.8991   74.6314   30.3740 C   0  0  0  0  0  0  0  0  0  0  0  0
  1  2  1  0
  2  3  2  0
  2  4  1  0
  4  5  2  0
  5  6  1  0
  6  7  1  0
  3  8  1  0
  6  8  2  0
  8  9  1  0
  9 10  2  0
  9 11  1  0
 11 12  1  0
 12 13  1  0
 13 14  1  0
 13 15  1  0
 11 16  1  0
 15 17  1  0
 16 17  1  0
 17 18  1  0
M  END
$$$$
