3PI5_3P5_A_387_
     RDKit          3D

 29 32  0  0  0  0  0  0  0  0999 V2000
   30.5839    9.6554   19.4880 Br  0  0  0  0  0  0  0  0  0  0  0  0
   31.0041    9.4835   17.6560 C   0  0  0  0  0  0  0  0  0  0  0  0
   30.7880   10.5623   16.7920 C   0  0  0  0  0  0  0  0  0  0  0  0
   31.1599   10.4509   15.4486 C   0  0  0  0  0  0  0  0  0  0  0  0
   31.7258    9.2672   14.9531 C   0  0  0  0  0  0  0  0  0  0  0  0
   31.9041    8.1770   15.8144 C   0  0  0  0  0  0  0  0  0  0  0  0
   31.5413    8.2807   17.1699 C   0  0  0  0  0  0  0  0  0  0  0  0
   32.4999    6.8689   15.2533 C   0  0  0  0  0  0  0  0  0  0  0  0
   31.3865    6.0368   14.5472 C   0  0  0  0  0  0  0  0  0  0  0  0
   31.9341    4.6499   14.2143 C   0  0  0  0  0  0  0  0  0  0  0  0
   30.9832    3.8038   13.3796 C   0  0  0  0  0  0  0  0  0  0  0  0
   29.6538    3.5466   14.0917 C   0  0  0  0  0  0  0  0  0  0  0  0
   28.8551    5.1255   14.3724 S   0  0  0  0  0  0  0  0  0  0  0  0
   30.1354    5.9303   15.4271 C   0  0  0  0  0  0  0  0  0  0  0  0
   27.6823    4.9475   15.1368 O   0  0  0  0  0  0  0  0  0  0  0  0
   28.7876    5.8451   13.1250 O   0  0  0  0  0  0  0  0  0  0  0  0
   31.6830    2.5178   13.0868 N   0  0  0  0  0  0  0  0  0  0  0  0
   31.0694    1.7319   11.9968 C   0  0  0  0  0  0  0  0  0  0  0  0
   30.9951    2.4812   10.6401 C   0  0  0  0  0  0  0  0  0  0  0  0
   32.1375    2.9772    9.9810 C   0  0  0  0  0  0  0  0  0  0  0  0
   31.9953    3.6673    8.7493 C   0  0  0  0  0  0  0  0  0  0  0  0
   30.7300    3.8366    8.1879 C   0  0  0  0  0  0  0  0  0  0  0  0
   29.6028    3.3256    8.8381 C   0  0  0  0  0  0  0  0  0  0  0  0
   29.7297    2.6593   10.0616 C   0  0  0  0  0  0  0  0  0  0  0  0
   33.1670    4.2721    7.9538 C   0  0  0  0  0  0  0  0  0  0  0  0
   34.4496    3.4472    8.1269 C   0  0  0  0  0  0  0  0  0  0  0  0
   34.2768    4.7569    8.8981 C   0  0  0  0  0  0  0  0  0  0  0  0
   33.1453    4.8016   13.4720 O   0  0  0  0  0  0  0  0  0  0  0  0
   30.2100   11.7366   17.2646 O   0  0  0  0  0  0  0  0  0  0  0  0
  1  2  1  0
  2  3  2  0
  3  4  1  0
  4  5  2  0
  5  6  1  0
  2  7  1  0
  6  7  2  0
  6  8  1  0
  8  9  1  0
  9 10  1  0
 10 11  1  0
 11 12  1  0
 12 13  1  0
  9 14  1  0
 13 14  1  0
 13 15  2  0
 13 16  2  0
 11 17  1  0
 17 18  1  0
 18 19  1  0
 19 20  2  0
 20 21  1  0
 21 22  2  0
 22 23  1  0
 19 24  1  0
 23 24  2  0
 21 25  1  0
 25 26  1  0
 25 27  1  0
 26 27  1  0
 10 28  1  0
  3 29  1  0
M  END
$$$$
