3QBH_QBH_A_387_
     RDKit          3D

 38 41  0  0  0  0  0  0  0  0999 V2000
   28.7780    5.2150   14.3000 S   0  0  0  0  0  0  0  0  0  0  0  0
   29.5930    3.6230   14.1070 C   0  0  0  0  0  0  0  0  0  0  0  0
   30.9700    3.8330   13.4070 C   0  0  0  0  0  0  0  0  0  0  0  0
   31.9250    4.7850   14.1980 C   0  0  0  0  0  0  0  0  0  0  0  0
   31.3680    6.2090   14.5170 C   0  0  0  0  0  0  0  0  0  0  0  0
   29.9880    6.1180   15.2500 C   0  0  0  0  0  0  0  0  0  0  0  0
   32.3940    7.0700   15.3420 C   0  0  0  0  0  0  0  0  0  0  0  0
   31.8020    8.3860   15.8730 C   0  0  0  0  0  0  0  0  0  0  0  0
   31.5160    8.5250   17.2550 C   0  0  0  0  0  0  0  0  0  0  0  0
   30.9550    9.7160   17.7760 C   0  0  0  0  0  0  0  0  0  0  0  0
   30.6770   10.7830   16.8740 C   0  0  0  0  0  0  0  0  0  0  0  0
   30.9710   10.6570   15.4960 C   0  0  0  0  0  0  0  0  0  0  0  0
   31.5340    9.4630   14.9910 C   0  0  0  0  0  0  0  0  0  0  0  0
   30.1060   11.9770   17.3100 O   0  0  0  0  0  0  0  0  0  0  0  0
   30.6650    9.8190   19.2910 C   0  0  0  0  0  0  0  0  0  0  0  0
   29.3520    9.1360   19.7770 C   0  0  0  0  0  0  0  0  0  0  0  0
   29.2380    7.6830   19.6880 N   0  0  0  0  0  0  0  0  0  0  0  0
   28.1800    7.2680   18.9400 C   0  0  0  0  0  0  0  0  0  0  0  0
   27.5250    8.3320   18.4570 O   0  0  0  0  0  0  0  0  0  0  0  0
   28.0520    9.5350   19.0420 C   0  0  0  0  0  0  0  0  0  0  0  0
   27.8220    6.1280   18.6920 O   0  0  0  0  0  0  0  0  0  0  0  0
   30.1620    6.7260   20.3190 C   0  0  0  0  0  0  0  0  0  0  0  0
   30.2440    6.7890   21.8660 C   0  0  0  0  0  0  0  0  0  0  0  0
   31.1530    5.6460   22.3960 C   0  0  0  0  0  0  0  0  0  0  0  0
   33.1640    4.8650   13.4740 O   0  0  0  0  0  0  0  0  0  0  0  0
   31.6490    2.5440   13.0870 N   0  0  0  0  0  0  0  0  0  0  0  0
   31.0770    1.6410   12.0330 C   0  0  0  0  0  0  0  0  0  0  0  0
   30.9750    2.3530   10.6680 C   0  0  0  0  0  0  0  0  0  0  0  0
   32.1410    2.7400    9.9650 C   0  0  0  0  0  0  0  0  0  0  0  0
   32.0660    3.3980    8.7080 C   0  0  0  0  0  0  0  0  0  0  0  0
   30.7890    3.6680    8.1630 C   0  0  0  0  0  0  0  0  0  0  0  0
   29.6130    3.2880    8.8530 C   0  0  0  0  0  0  0  0  0  0  0  0
   29.7040    2.6300   10.1050 C   0  0  0  0  0  0  0  0  0  0  0  0
   33.3530    3.8070    7.9570 C   0  0  0  0  0  0  0  0  0  0  0  0
   33.9860    5.0620    8.6140 C   0  0  0  0  0  0  0  0  0  0  0  0
   34.4040    2.6810    7.7570 C   0  0  0  0  0  0  0  0  0  0  0  0
   27.5960    4.9960   15.1010 O   0  0  0  0  0  0  0  0  0  0  0  0
   28.6370    5.8460   13.0000 O   0  0  0  0  0  0  0  0  0  0  0  0
  1  2  1  0
  2  3  1  0
  3  4  1  0
  4  5  1  0
  1  6  1  0
  5  6  1  0
  5  7  1  0
  7  8  1  0
  8  9  2  0
  9 10  1  0
 10 11  2  0
 11 12  1  0
  8 13  1  0
 12 13  2  0
 11 14  1  0
 10 15  1  0
 15 16  1  0
 16 17  1  0
 17 18  1  0
 18 19  1  0
 16 20  1  0
 19 20  1  0
 18 21  2  0
 17 22  1  0
 22 23  1  0
 23 24  1  0
  4 25  1  0
  3 26  1  0
 26 27  1  0
 27 28  1  0
 28 29  2  0
 29 30  1  0
 30 31  2  0
 31 32  1  0
 28 33  1  0
 32 33  2  0
 30 34  1  0
 34 35  1  0
 34 36  1  0
  1 37  2  0
  1 38  2  0
M  END
$$$$
