3HEK_BD0_A_901_
     RDKit          3D

 30 33  0  0  0  0  0  0  0  0999 V2000
   16.9690   -0.4100   48.8480 C   0  0  0  0  0  0  0  0  0  0  0  0
   16.1420   -1.4760   49.3160 C   0  0  0  0  0  0  0  0  0  0  0  0
   14.7780   -1.2440   49.6580 C   0  0  0  0  0  0  0  0  0  0  0  0
   14.2410    0.0590   49.5400 C   0  0  0  0  0  0  0  0  0  0  0  0
   16.7140   -2.8390   49.4510 C   0  0  0  0  0  0  0  0  0  0  0  0
   17.0310   -3.3320   50.7390 N   0  0  0  0  0  0  0  0  0  0  0  0
   17.6240   -4.6650   50.8180 C   0  0  0  0  0  0  0  0  0  0  0  0
   17.8800   -3.5970   52.9560 C   0  0  0  0  0  0  0  0  0  0  0  0
   15.7410   -2.4550   52.8050 C   0  0  0  0  0  0  0  0  0  0  0  0
   13.3210   -2.0780   54.3040 C   0  0  0  0  0  0  0  0  0  0  0  0
   12.0600   -1.9040   55.1180 C   0  0  0  0  0  0  0  0  0  0  0  0
    9.0440   -0.9360   53.2160 C   0  0  0  0  0  0  0  0  0  0  0  0
    9.8710   -1.0440   55.4910 C   0  0  0  0  0  0  0  0  0  0  0  0
   14.5870    2.3950   48.9580 O   0  0  0  0  0  0  0  0  0  0  0  0
   15.0620    1.1230   49.0810 C   0  0  0  0  0  0  0  0  0  0  0  0
   16.4250    0.8980   48.7300 C   0  0  0  0  0  0  0  0  0  0  0  0
   18.2870   -0.6460   48.5160 O   0  0  0  0  0  0  0  0  0  0  0  0
   12.5950    0.3110   49.9670 Cl  0  0  0  0  0  0  0  0  0  0  0  0
   16.9110   -3.4590   48.4080 O   0  0  0  0  0  0  0  0  0  0  0  0
   17.8450   -4.9660   52.2860 C   0  0  0  0  0  0  0  0  0  0  0  0
   17.0730   -2.6250   52.0540 C   0  0  0  0  0  0  0  0  0  0  0  0
   14.6870   -3.4280   52.7600 C   0  0  0  0  0  0  0  0  0  0  0  0
   13.4970   -3.2420   53.4990 C   0  0  0  0  0  0  0  0  0  0  0  0
   10.9750   -1.1050   54.5460 N   0  0  0  0  0  0  0  0  0  0  0  0
   10.3990   -1.6160   53.2880 C   0  0  0  0  0  0  0  0  0  0  0  0
    8.7320   -0.5690   54.6530 C   0  0  0  0  0  0  0  0  0  0  0  0
    7.5690   -1.1170   55.0700 F   0  0  0  0  0  0  0  0  0  0  0  0
    8.6170    0.7660   54.7720 F   0  0  0  0  0  0  0  0  0  0  0  0
   14.3540   -1.0980   54.3500 C   0  0  0  0  0  0  0  0  0  0  0  0
   15.5520   -1.2810   53.6100 C   0  0  0  0  0  0  0  0  0  0  0  0
  1  2  2  0
  2  3  1  0
  3  4  2  0
  2  5  1  0
  5  6  1  0
  6  7  1  0
 10 11  1  0
 14 15  1  0
  4 15  1  0
  1 16  1  0
 15 16  2  0
  1 17  1  0
  4 18  1  0
  5 19  2  0
  7 20  1  0
  8 20  1  0
  6 21  1  0
  9 21  1  0
  8 21  1  0
  9 22  2  0
 22 23  1  0
 10 23  2  0
 11 24  1  0
 13 24  1  0
 12 25  1  0
 24 25  1  0
 12 26  1  0
 13 26  1  0
 26 27  1  0
 26 28  1  0
 10 29  1  0
  9 30  1  0
 29 30  2  0
M  END
$$$$
