1SQA_UI1_A_1001_
     RDKit          3D

 31 34  0  0  0  0  0  0  0  0999 V2000
   29.5520   11.8530   28.7170 N   0  0  0  0  0  0  0  0  0  0  0  0
   28.3300   11.0730   28.8590 C   0  0  0  0  0  0  0  0  0  0  0  0
   27.2630   11.8440   29.6510 C   0  0  0  0  0  0  0  0  0  0  0  0
   26.5790   12.9060   29.0380 C   0  0  0  0  0  0  0  0  0  0  0  0
   25.6020   13.6060   29.7610 C   0  0  0  0  0  0  0  0  0  0  0  0
   25.2850   13.2590   31.1110 C   0  0  0  0  0  0  0  0  0  0  0  0
   24.2440   14.0730   31.6860 N   0  0  0  0  0  0  0  0  0  0  0  0
   24.5160   14.9930   32.5920 C   0  0  0  0  0  0  0  0  0  0  0  0
   25.6530   15.1500   33.0210 O   0  0  0  0  0  0  0  0  0  0  0  0
   23.4180   15.9110   33.0260 C   0  0  0  0  0  0  0  0  0  0  0  0
   23.7630   16.9690   33.8980 C   0  0  0  0  0  0  0  0  0  0  0  0
   22.8180   17.8960   34.2740 C   0  0  0  0  0  0  0  0  0  0  0  0
   23.2180   18.9970   35.1110 N   0  0  0  0  0  0  0  0  0  0  0  0
   23.7200   18.8390   36.4290 C   0  0  0  0  0  0  0  0  0  0  0  0
   24.1540   19.9420   37.0850 N   0  0  0  0  0  0  0  0  0  0  0  0
   24.6250   19.8550   38.3490 C   0  0  0  0  0  0  0  0  0  0  0  0
   24.6580   18.6020   38.9980 C   0  0  0  0  0  0  0  0  0  0  0  0
   24.2060   17.4800   38.2880 C   0  0  0  0  0  0  0  0  0  0  0  0
   23.7470   17.6250   37.0220 N   0  0  0  0  0  0  0  0  0  0  0  0
   21.4730   17.7830   33.7830 C   0  0  0  0  0  0  0  0  0  0  0  0
   20.5150   18.7550   34.1600 C   0  0  0  0  0  0  0  0  0  0  0  0
   19.1860   18.6620   33.6930 C   0  0  0  0  0  0  0  0  0  0  0  0
   18.8010   17.5980   32.8540 C   0  0  0  0  0  0  0  0  0  0  0  0
   19.7560   16.6250   32.4690 C   0  0  0  0  0  0  0  0  0  0  0  0
   21.1010   16.7220   32.9310 C   0  0  0  0  0  0  0  0  0  0  0  0
   22.0770   15.7770   32.5410 C   0  0  0  0  0  0  0  0  0  0  0  0
   18.2380   19.7150   34.1260 C   0  0  0  0  0  0  0  0  0  0  0  0
   18.6560   20.6930   34.8790 N   0  0  0  0  0  0  0  0  0  0  0  0
   16.9650   19.6770   33.7560 N   0  0  0  0  0  0  0  0  0  0  0  0
   25.9580   12.1980   31.7280 C   0  0  0  0  0  0  0  0  0  0  0  0
   26.9590   11.4880   30.9910 C   0  0  0  0  0  0  0  0  0  0  0  0
  1  2  1  0
  2  3  1  0
  3  4  2  0
  4  5  1  0
  5  6  2  0
  6  7  1  0
  7  8  1  0
  8  9  2  0
  8 10  1  0
 10 11  2  0
 11 12  1  0
 12 13  1  0
 13 14  1  0
 14 15  2  0
 15 16  1  0
 16 17  2  0
 17 18  1  0
 14 19  1  0
 18 19  2  0
 12 20  2  0
 20 21  1  0
 21 22  2  0
 22 23  1  0
 23 24  2  0
 20 25  1  0
 24 25  1  0
 10 26  1  0
 25 26  2  0
 22 27  1  0
 27 28  2  0
 27 29  1  0
  6 30  1  0
  3 31  1  0
 30 31  2  0
M  END
$$$$
