2VTA_LZ1_A_1301_
     RDKit          3D

  9 10  0  0  0  0  0  0  0  0999 V2000
   -0.0617   31.5638    8.3004 C   0  0  0  0  0  0  0  0  0  0  0  0
    0.6193   30.3439    8.1807 C   0  0  0  0  0  0  0  0  0  0  0  0
    0.1552   29.2525    8.9113 C   0  0  0  0  0  0  0  0  0  0  0  0
   -0.9448   29.3751    9.7414 C   0  0  0  0  0  0  0  0  0  0  0  0
   -1.6028   30.5859    9.8560 C   0  0  0  0  0  0  0  0  0  0  0  0
   -1.1618   31.6812    9.1405 C   0  0  0  0  0  0  0  0  0  0  0  0
    0.5980   32.4504    7.4883 N   0  0  0  0  0  0  0  0  0  0  0  0
    1.6723   30.5849    7.2646 C   0  0  0  0  0  0  0  0  0  0  0  0
    1.6522   31.8629    6.8630 N   0  0  0  0  0  0  0  0  0  0  0  0
  1  2  1  0
  2  3  2  0
  3  4  1  0
  4  5  2  0
  1  6  2  0
  5  6  1  0
  1  7  1  0
  2  8  1  0
  7  9  1  0
  8  9  2  0
M  END
$$$$
