3MV5_XFE_A_999_
     RDKit          3D

 16 18  0  0  0  0  0  0  0  0999 V2000
   18.9441   -3.6541   26.2216 C   0  0  0  0  0  0  0  0  0  0  0  0
   19.5778   -4.8528   26.8971 C   0  0  0  0  0  0  0  0  0  0  0  0
   18.3927   -5.5170   27.5955 C   0  0  0  0  0  0  0  0  0  0  0  0
   17.5854   -4.3694   27.9936 N   0  0  0  0  0  0  0  0  0  0  0  0
   17.8725   -3.1845   27.1973 C   0  0  0  0  0  0  0  0  0  0  0  0
   16.3000   -4.6223   28.5214 C   0  0  0  0  0  0  0  0  0  0  0  0
   16.0795   -5.9456   28.6907 N   0  0  0  0  0  0  0  0  0  0  0  0
   14.8974   -6.4038   29.1470 C   0  0  0  0  0  0  0  0  0  0  0  0
   13.8810   -5.5416   29.4913 N   0  0  0  0  0  0  0  0  0  0  0  0
   15.2567   -3.6970   28.8723 C   0  0  0  0  0  0  0  0  0  0  0  0
   14.0230   -4.2081   29.3638 C   0  0  0  0  0  0  0  0  0  0  0  0
   13.1099   -3.2442   29.6395 N   0  0  0  0  0  0  0  0  0  0  0  0
   13.6284   -2.0168   29.3795 C   0  0  0  0  0  0  0  0  0  0  0  0
   14.9394   -2.2280   28.9273 C   0  0  0  0  0  0  0  0  0  0  0  0
   15.7925   -1.0447   28.5450 C   0  0  0  0  0  0  0  0  0  0  0  0
   18.3045   -4.0644   24.9775 N   0  0  0  0  0  0  0  0  0  0  0  0
  1  2  1  0
  2  3  1  0
  3  4  1  0
  1  5  1  0
  4  5  1  0
  4  6  1  0
  6  7  2  0
  7  8  1  0
  8  9  2  0
  6 10  1  0
  9 11  1  0
 10 11  2  0
 11 12  1  0
 12 13  1  0
 10 14  1  0
 13 14  2  0
 14 15  1  0
  1 16  1  0
M  END
$$$$
