3MVH_WFE_A_999_
     RDKit          3D

 29 32  0  0  0  0  0  0  0  0999 V2000
   16.3290   -0.7580   29.3170 C   0  0  0  0  0  0  0  0  0  0  0  0
   15.3980   -1.3020   28.2480 C   0  0  0  0  0  0  0  0  0  0  0  0
   14.6320   -2.4920   28.7780 C   0  0  0  0  0  0  0  0  0  0  0  0
   13.3260   -2.4040   29.2320 C   0  0  0  0  0  0  0  0  0  0  0  0
   12.9200   -3.6380   29.5790 N   0  0  0  0  0  0  0  0  0  0  0  0
   13.9460   -4.5060   29.4260 C   0  0  0  0  0  0  0  0  0  0  0  0
   13.8940   -5.8380   29.7230 N   0  0  0  0  0  0  0  0  0  0  0  0
   14.9940   -6.5990   29.5520 C   0  0  0  0  0  0  0  0  0  0  0  0
   16.0980   -6.0270   29.0160 N   0  0  0  0  0  0  0  0  0  0  0  0
   16.1680   -4.7240   28.6610 C   0  0  0  0  0  0  0  0  0  0  0  0
   17.3910   -4.4220   28.1630 N   0  0  0  0  0  0  0  0  0  0  0  0
   18.4990   -5.4200   28.0240 C   0  0  0  0  0  0  0  0  0  0  0  0
   19.5030   -4.7300   27.0680 C   0  0  0  0  0  0  0  0  0  0  0  0
   18.6180   -3.7680   26.3580 C   0  0  0  0  0  0  0  0  0  0  0  0
   17.9770   -4.7660   25.5010 N   0  0  0  0  0  0  0  0  0  0  0  0
   19.2290   -2.7400   25.3980 C   0  0  0  0  0  0  0  0  0  0  0  0
   19.7190   -1.5480   26.0970 N   0  0  0  0  0  0  0  0  0  0  0  0
   20.9200   -1.4910   26.5970 C   0  0  0  0  0  0  0  0  0  0  0  0
   21.6830   -2.4370   26.4770 O   0  0  0  0  0  0  0  0  0  0  0  0
   21.4250   -0.2890   27.3100 C   0  0  0  0  0  0  0  0  0  0  0  0
   21.0200    1.0060   26.9730 C   0  0  0  0  0  0  0  0  0  0  0  0
   21.5380    2.0900   27.6850 C   0  0  0  0  0  0  0  0  0  0  0  0
   22.4440    1.8360   28.7080 C   0  0  0  0  0  0  0  0  0  0  0  0
   22.9750    2.8300   29.4040 F   0  0  0  0  0  0  0  0  0  0  0  0
   22.8680    0.5560   29.0210 C   0  0  0  0  0  0  0  0  0  0  0  0
   22.3600   -0.5100   28.3070 C   0  0  0  0  0  0  0  0  0  0  0  0
   22.7360   -1.7570   28.6280 F   0  0  0  0  0  0  0  0  0  0  0  0
   17.8110   -3.1990   27.5850 C   0  0  0  0  0  0  0  0  0  0  0  0
   15.0450   -3.8740   28.9040 C   0  0  0  0  0  0  0  0  0  0  0  0
  1  2  1  0
  2  3  1  0
  3  4  2  0
  4  5  1  0
  5  6  1  0
  6  7  1  0
  7  8  2  0
  8  9  1  0
  9 10  2  0
 10 11  1  0
 11 12  1  0
 12 13  1  0
 13 14  1  0
 14 15  1  0
 14 16  1  0
 16 17  1  0
 17 18  1  0
 18 19  2  0
 18 20  1  0
 20 21  2  0
 21 22  1  0
 22 23  2  0
 23 24  1  0
 23 25  1  0
 20 26  1  0
 25 26  2  0
 26 27  1  0
 11 28  1  0
 14 28  1  0
  3 29  1  0
  6 29  2  0
 10 29  1  0
M  END
$$$$
