3ZT1_OM1_A_1215_
     RDKit          3D

 33 36  0  0  0  0  0  0  0  0999 V2000
  -10.5768   48.1059    5.7672 C   0  0  0  0  0  0  0  0  0  0  0  0
  -11.4538   48.8578    5.0102 C   0  0  0  0  0  0  0  0  0  0  0  0
   -9.4891   47.4827    5.1713 C   0  0  0  0  0  0  0  0  0  0  0  0
  -11.2442   48.9741    3.6464 C   0  0  0  0  0  0  0  0  0  0  0  0
  -11.2911   45.3294   -1.4814 C   0  0  0  0  0  0  0  0  0  0  0  0
   -8.4158   43.0013    1.7329 C   0  0  0  0  0  0  0  0  0  0  0  0
   -7.3395   44.6876    0.4418 C   0  0  0  0  0  0  0  0  0  0  0  0
  -12.0835   44.8172   -2.5026 C   0  0  0  0  0  0  0  0  0  0  0  0
   -8.9746   42.4588    0.5895 C   0  0  0  0  0  0  0  0  0  0  0  0
   -7.8858   44.1593   -0.7058 C   0  0  0  0  0  0  0  0  0  0  0  0
   -9.2856   47.6036    3.8025 C   0  0  0  0  0  0  0  0  0  0  0  0
  -13.2185   45.6423   -0.0525 C   0  0  0  0  0  0  0  0  0  0  0  0
   -7.6027   44.1155    1.6671 C   0  0  0  0  0  0  0  0  0  0  0  0
  -10.1714   48.3526    3.0446 C   0  0  0  0  0  0  0  0  0  0  0  0
  -11.8369   45.7394   -0.2665 C   0  0  0  0  0  0  0  0  0  0  0  0
  -13.4421   44.7406   -2.2801 C   0  0  0  0  0  0  0  0  0  0  0  0
  -13.9904   45.1304   -1.0909 C   0  0  0  0  0  0  0  0  0  0  0  0
   -8.7050   43.0497   -0.6310 C   0  0  0  0  0  0  0  0  0  0  0  0
   -8.1180   46.9203    3.1867 C   0  0  0  0  0  0  0  0  0  0  0  0
  -13.8739   46.0573    1.2301 C   0  0  0  0  0  0  0  0  0  0  0  0
  -15.5484   44.2089   -2.3346 C   0  0  0  0  0  0  0  0  0  0  0  0
  -10.2288   41.5896   -1.6558 C   0  0  0  0  0  0  0  0  0  0  0  0
   -7.0147   44.6977    2.9169 C   0  0  0  0  0  0  0  0  0  0  0  0
  -10.0143   48.5288    1.5664 C   0  0  0  0  0  0  0  0  0  0  0  0
  -10.8685   46.2810    0.7453 C   0  0  0  0  0  0  0  0  0  0  0  0
   -7.9923   45.5888    3.5130 N   0  0  0  0  0  0  0  0  0  0  0  0
  -11.0200   47.7600    0.7745 N   0  0  0  0  0  0  0  0  0  0  0  0
  -14.8964   45.4009    1.6030 O   0  0  0  0  0  0  0  0  0  0  0  0
   -7.3379   47.5218    2.4489 O   0  0  0  0  0  0  0  0  0  0  0  0
  -13.3533   47.0158    1.8699 O   0  0  0  0  0  0  0  0  0  0  0  0
  -14.3814   44.2688   -3.1768 O   0  0  0  0  0  0  0  0  0  0  0  0
  -15.3586   44.9537   -1.1042 O   0  0  0  0  0  0  0  0  0  0  0  0
   -9.2236   42.5939   -1.8336 O   0  0  0  0  0  0  0  0  0  0  0  0
  1  2  2  0
  1  3  1  0
  2  4  1  0
  5  8  2  0
  6  9  2  0
  7 10  1  0
  3 11  2  0
  6 13  1  0
  7 13  2  0
  4 14  2  0
 11 14  1  0
  5 15  1  0
 12 15  2  0
  8 16  1  0
 12 17  1  0
 16 17  2  0
  9 18  1  0
 10 18  2  0
 11 19  1  0
 12 20  1  0
 13 23  1  0
 14 24  1  0
 15 25  1  0
 19 26  1  0
 23 26  1  0
 24 27  1  0
 25 27  1  0
 20 28  1  0
 19 29  2  0
 20 30  2  0
 16 31  1  0
 21 31  1  0
 17 32  1  0
 21 32  1  0
 18 33  1  0
 22 33  1  0
M  CHG  1  27   1
M  END
$$$$
