2ZXB_ZXB_B_902_
     RDKit          3D

 16 17  0  0  0  0  0  0  0  0999 V2000
   26.9670    2.1470   55.1420 C   0  0  0  0  0  0  0  0  0  0  0  0
   27.2180    0.7740   55.1380 C   0  0  0  0  0  0  0  0  0  0  0  0
   27.4840    0.1120   56.3360 C   0  0  0  0  0  0  0  0  0  0  0  0
   27.4970    0.8230   57.5360 C   0  0  0  0  0  0  0  0  0  0  0  0
   27.2510    2.1970   57.5320 C   0  0  0  0  0  0  0  0  0  0  0  0
   26.9900    2.8700   56.3360 C   0  0  0  0  0  0  0  0  0  0  0  0
   26.8590    4.4000   56.2780 C   0  0  0  0  0  0  0  0  0  0  0  0
   26.3440    5.0400   57.5740 C   0  0  0  0  0  0  0  0  0  0  0  0
   26.8320    6.4340   57.5890 N   0  0  0  0  0  0  0  0  0  0  0  0
   26.5320    7.1430   58.8470 C   0  0  0  0  0  0  0  0  0  0  0  0
   27.0680    6.4080   60.0790 C   0  0  0  0  0  0  0  0  0  0  0  0
   26.4590    6.9070   61.2720 O   0  0  0  0  0  0  0  0  0  0  0  0
   26.5570    4.9710   60.0700 C   0  0  0  0  0  0  0  0  0  0  0  0
   27.2180    4.3180   61.1590 O   0  0  0  0  0  0  0  0  0  0  0  0
   27.0570    4.3830   58.7560 C   0  0  0  0  0  0  0  0  0  0  0  0
   28.4210    4.8210   58.6600 O   0  0  0  0  0  0  0  0  0  0  0  0
  1  2  2  0
  2  3  1  0
  3  4  2  0
  4  5  1  0
  1  6  1  0
  5  6  2  0
  6  7  1  0
  7  8  1  0
  8  9  1  0
  9 10  1  0
 10 11  1  0
 11 12  1  0
 11 13  1  0
 13 14  1  0
  8 15  1  0
 13 15  1  0
 15 16  1  0
M  END
$$$$
