2ZXD_ZXD_B_902_
     RDKit          3D

 12 12  0  0  0  0  0  0  0  0999 V2000
   28.2764    8.2308   56.9742 C   0  0  0  0  0  0  0  0  0  0  0  0
   27.8094    7.9536   58.4074 C   0  0  0  0  0  0  0  0  0  0  0  0
   26.5402    8.7698   58.6671 C   0  0  0  0  0  0  0  0  0  0  0  0
   27.5652    6.4504   58.5752 C   0  0  0  0  0  0  0  0  0  0  0  0
   26.3555    6.0621   57.8285 N   0  0  0  0  0  0  0  0  0  0  0  0
   26.1701    4.6047   57.8325 C   0  0  0  0  0  0  0  0  0  0  0  0
   26.0035    4.1266   59.2804 C   0  0  0  0  0  0  0  0  0  0  0  0
   25.8518    2.7063   59.3274 O   0  0  0  0  0  0  0  0  0  0  0  0
   27.2413    4.4999   60.0940 C   0  0  0  0  0  0  0  0  0  0  0  0
   27.0805    4.0620   61.4450 O   0  0  0  0  0  0  0  0  0  0  0  0
   27.4263    6.0174   60.0382 C   0  0  0  0  0  0  0  0  0  0  0  0
   26.2815    6.6159   60.6476 O   0  0  0  0  0  0  0  0  0  0  0  0
  1  2  1  0
  2  3  1  0
  2  4  1  0
  4  5  1  0
  5  6  1  0
  6  7  1  0
  7  8  1  0
  7  9  1  0
  9 10  1  0
  4 11  1  0
  9 11  1  0
 11 12  1  0
M  END
$$$$
