1HWW_SWA_A_1103_
     RDKit          3D

 12 13  0  0  0  0  0  0  0  0999 V2000
   31.2681   67.0628    6.1635 C   0  0  0  0  0  0  0  0  0  0  0  0
   31.7960   68.2086    5.4737 O   0  0  0  0  0  0  0  0  0  0  0  0
   31.4696   67.2154    7.7091 C   0  0  0  0  0  0  0  0  0  0  0  0
   30.9131   66.0165    8.3648 N   0  0  0  0  0  0  0  0  0  0  0  0
   29.4391   65.8732    8.1899 C   0  0  0  0  0  0  0  0  0  0  0  0
   29.1397   65.7002    6.6760 C   0  0  0  0  0  0  0  0  0  0  0  0
   29.7386   66.8924    5.8735 C   0  0  0  0  0  0  0  0  0  0  0  0
   31.4631   65.9237    9.7111 C   0  0  0  0  0  0  0  0  0  0  0  0
   32.8241   66.6646    9.6601 C   0  0  0  0  0  0  0  0  0  0  0  0
   33.8944   65.7551    9.8980 O   0  0  0  0  0  0  0  0  0  0  0  0
   32.9320   67.3003    8.2249 C   0  0  0  0  0  0  0  0  0  0  0  0
   33.8234   66.5368    7.3845 O   0  0  0  0  0  0  0  0  0  0  0  0
  1  2  1  0
  1  3  1  0
  3  4  1  0
  4  5  1  0
  5  6  1  0
  1  7  1  0
  6  7  1  0
  4  8  1  0
  8  9  1  0
  9 10  1  0
  3 11  1  0
  9 11  1  0
 11 12  1  0
M  END
$$$$
