3IAF_TPP_D_571_
     RDKit          3D

 26 27  0  0  0  0  0  0  0  0999 V2000
   18.9805  -65.2958  -31.3275 N   0  0  0  0  0  0  0  0  0  0  0  0
   19.5755  -64.1781  -31.8697 C   0  0  0  0  0  0  0  0  0  0  0  0
   18.9350  -62.8378  -31.6681 C   0  0  0  0  0  0  0  0  0  0  0  0
   20.7556  -64.3016  -32.5905 N   0  0  0  0  0  0  0  0  0  0  0  0
   21.3457  -65.5435  -32.7780 C   0  0  0  0  0  0  0  0  0  0  0  0
   22.4797  -65.6429  -33.4759 N   0  0  0  0  0  0  0  0  0  0  0  0
   20.7347  -66.6765  -32.2301 C   0  0  0  0  0  0  0  0  0  0  0  0
   19.5546  -66.5393  -31.5020 C   0  0  0  0  0  0  0  0  0  0  0  0
   21.3365  -68.0563  -32.3918 C   0  0  0  0  0  0  0  0  0  0  0  0
   21.1047  -68.6217  -33.6987 N   0  0  0  0  0  0  0  0  0  0  0  0
   22.1033  -68.7487  -34.6342 C   0  0  0  0  0  0  0  0  0  0  0  0
   21.6118  -69.4196  -36.0037 S   0  0  0  0  0  0  0  0  0  0  0  0
   20.1168  -69.5790  -35.4788 C   0  0  0  0  0  0  0  0  0  0  0  0
   19.9251  -69.1125  -34.1838 C   0  0  0  0  0  0  0  0  0  0  0  0
   18.6059  -69.1627  -33.4660 C   0  0  0  0  0  0  0  0  0  0  0  0
   19.1929  -70.2193  -36.4762 C   0  0  0  0  0  0  0  0  0  0  0  0
   18.5686  -69.2230  -37.4495 C   0  0  0  0  0  0  0  0  0  0  0  0
   17.5935  -69.9097  -38.2050 O   0  0  0  0  0  0  0  0  0  0  0  0
   17.0267  -69.3664  -39.6121 P   0  0  0  0  0  0  0  0  0  0  0  0
   16.7481  -67.8865  -39.5663 O   0  0  0  0  0  0  0  0  0  0  0  0
   15.7687  -70.1112  -39.9776 O   0  0  0  0  0  0  0  0  0  0  0  0
   18.2067  -69.6236  -40.6790 O   0  0  0  0  0  0  0  0  0  0  0  0
   18.7204  -71.0915  -41.1172 P   0  0  0  0  0  0  0  0  0  0  0  0
   17.6604  -72.1350  -40.8318 O   0  0  0  0  0  0  0  0  0  0  0  0
   19.9837  -71.4023  -40.3451 O   0  0  0  0  0  0  0  0  0  0  0  0
   19.0313  -71.1058  -42.5940 O   0  0  0  0  0  0  0  0  0  0  0  0
  1  2  2  0
  2  3  1  0
  2  4  1  0
  4  5  2  0
  5  6  1  0
  5  7  1  0
  1  8  1  0
  7  8  2  0
  7  9  1  0
  9 10  1  0
 10 11  2  0
 11 12  1  0
 12 13  1  0
 10 14  1  0
 13 14  2  0
 14 15  1  0
 13 16  1  0
 16 17  1  0
 17 18  1  0
 18 19  1  0
 19 20  2  0
 19 21  1  0
 19 22  1  0
 22 23  1  0
 23 24  2  0
 23 25  1  0
 23 26  1  0
M  CHG  1  10   1
M  END
$$$$
