3IAE_D7K_B_571_
     RDKit          3D

 39 41  0  0  0  0  0  0  0  0999 V2000
   17.0060  -69.4820  -39.5810 P   0  0  0  0  0  0  0  0  0  0  0  0
   15.7450  -70.4520  -39.9450 O   0  0  0  0  0  0  0  0  0  0  0  0
   16.7510  -68.0470  -39.4630 O   0  0  0  0  0  0  0  0  0  0  0  0
   19.2530  -70.9290  -42.6270 O   0  0  0  0  0  0  0  0  0  0  0  0
   18.8400  -71.0640  -41.0410 P   0  0  0  0  0  0  0  0  0  0  0  0
   17.7900  -72.3260  -40.8220 O   0  0  0  0  0  0  0  0  0  0  0  0
   20.1100  -71.3560  -40.3200 O   0  0  0  0  0  0  0  0  0  0  0  0
   18.1450  -69.6740  -40.6800 O   0  0  0  0  0  0  0  0  0  0  0  0
   17.5660  -69.9510  -38.1080 O   0  0  0  0  0  0  0  0  0  0  0  0
   18.6950  -69.3250  -37.5410 C   0  0  0  0  0  0  0  0  0  0  0  0
   19.1730  -70.2650  -36.4590 C   0  0  0  0  0  0  0  0  0  0  0  0
   20.2320  -69.6080  -35.5550 C   0  0  0  0  0  0  0  0  0  0  0  0
   19.9270  -69.0920  -34.1260 C   0  0  0  0  0  0  0  0  0  0  0  0
   18.5610  -69.1640  -33.4510 C   0  0  0  0  0  0  0  0  0  0  0  0
   21.8410  -69.4400  -35.9300 S   0  0  0  0  0  0  0  0  0  0  0  0
   22.3450  -68.6770  -34.3840 C   0  0  0  0  0  0  0  0  0  0  0  0
   21.2070  -68.5460  -33.4230 N   0  0  0  0  0  0  0  0  0  0  0  0
   21.2370  -68.0000  -32.0830 C   0  0  0  0  0  0  0  0  0  0  0  0
   20.5160  -66.6630  -32.0590 C   0  0  0  0  0  0  0  0  0  0  0  0
   19.3090  -66.5130  -31.2340 C   0  0  0  0  0  0  0  0  0  0  0  0
   21.0440  -65.4890  -32.7510 C   0  0  0  0  0  0  0  0  0  0  0  0
   22.2620  -65.6050  -33.5090 N   0  0  0  0  0  0  0  0  0  0  0  0
   20.3800  -64.2050  -32.6690 N   0  0  0  0  0  0  0  0  0  0  0  0
   19.1620  -64.0320  -31.8800 C   0  0  0  0  0  0  0  0  0  0  0  0
   18.6550  -65.2380  -31.1730 N   0  0  0  0  0  0  0  0  0  0  0  0
   18.4180  -62.7240  -31.7900 C   0  0  0  0  0  0  0  0  0  0  0  0
   23.6080  -70.0170  -31.6790 O   0  0  0  0  0  0  0  0  0  0  0  0
   24.5520  -69.9920  -33.0050 P   0  0  0  0  0  0  0  0  0  0  0  0
   24.5710  -71.2770  -33.7650 O   0  0  0  0  0  0  0  0  0  0  0  0
   26.1110  -69.5290  -32.5860 O   0  0  0  0  0  0  0  0  0  0  0  0
   27.2230  -70.1140  -33.2250 C   0  0  0  0  0  0  0  0  0  0  0  0
   23.8360  -68.5250  -33.9710 C   0  0  0  0  0  0  0  0  0  0  0  0
   24.0080  -67.4190  -33.0800 O   0  0  0  0  0  0  0  0  0  0  0  0
   24.6150  -68.3340  -35.3130 C   0  0  0  0  0  0  0  0  0  0  0  0
   25.2080  -69.5740  -36.0710 C   0  0  0  0  0  0  0  0  0  0  0  0
   25.9810  -69.4260  -37.3840 C   0  0  0  0  0  0  0  0  0  0  0  0
   26.1730  -68.0230  -37.9830 C   0  0  0  0  0  0  0  0  0  0  0  0
   25.5550  -66.8320  -37.2360 C   0  0  0  0  0  0  0  0  0  0  0  0
   24.7750  -66.9320  -35.9150 C   0  0  0  0  0  0  0  0  0  0  0  0
  1  2  2  0
  1  3  1  0
  4  5  1  0
  5  6  2  0
  5  7  1  0
  1  8  1  0
  5  8  1  0
  1  9  1  0
  9 10  1  0
 10 11  1  0
 11 12  1  0
 12 13  2  0
 13 14  1  0
 12 15  1  0
 15 16  1  0
 13 17  1  0
 16 17  2  0
 17 18  1  0
 18 19  1  0
 19 20  2  0
 19 21  1  0
 21 22  1  0
 21 23  2  0
 23 24  1  0
 20 25  1  0
 24 25  2  0
 24 26  1  0
 27 28  2  0
 28 29  1  0
 28 30  1  0
 30 31  1  0
 16 32  1  0
 28 32  1  0
 32 33  1  0
 32 34  1  0
 34 35  2  0
 35 36  1  0
 36 37  2  0
 37 38  1  0
 34 39  1  0
 38 39  2  0
M  CHG  1  17   1
M  END
$$$$
