3FL8_RAR_C_200_
     RDKit          3D

 36 39  0  0  0  0  0  0  0  0999 V2000
   17.4720  -37.5090   35.7530 N   0  0  0  0  0  0  0  0  0  0  0  0
   18.0010  -37.1100   36.9640 C   0  0  0  0  0  0  0  0  0  0  0  0
   17.0720  -36.7200   38.0590 C   0  0  0  0  0  0  0  0  0  0  0  0
   15.6000  -36.7820   37.7640 C   0  0  0  0  0  0  0  0  0  0  0  0
   14.7560  -35.9630   38.6950 C   0  0  0  0  0  0  0  0  0  0  0  0
   13.6100  -36.6980   39.3880 C   0  0  0  0  0  0  0  0  0  0  0  0
   12.6870  -35.9480   40.2900 C   0  0  0  0  0  0  0  0  0  0  0  0
   11.6960  -36.7260   40.8360 O   0  0  0  0  0  0  0  0  0  0  0  0
   11.5860  -37.9630   40.2560 C   0  0  0  0  0  0  0  0  0  0  0  0
   12.9030  -34.4410   40.5070 C   0  0  0  0  0  0  0  0  0  0  0  0
   12.0240  -33.7880   41.3160 O   0  0  0  0  0  0  0  0  0  0  0  0
   11.3520  -34.5360   42.3240 C   0  0  0  0  0  0  0  0  0  0  0  0
   14.0550  -33.6730   39.8090 C   0  0  0  0  0  0  0  0  0  0  0  0
   14.3370  -32.1750   39.9640 C   0  0  0  0  0  0  0  0  0  0  0  0
   13.7270  -31.3940   40.8040 C   0  0  0  0  0  0  0  0  0  0  0  0
   14.2000  -29.9790   41.0480 C   0  0  0  0  0  0  0  0  0  0  0  0
   15.3000  -29.4330   40.3190 N   0  0  0  0  0  0  0  0  0  0  0  0
   15.9880  -30.3300   39.4460 N   0  0  0  0  0  0  0  0  0  0  0  0
   17.0050  -29.8360   38.5980 C   0  0  0  0  0  0  0  0  0  0  0  0
   15.7820  -28.0410   40.4610 C   0  0  0  0  0  0  0  0  0  0  0  0
   17.2050  -27.8780   41.1580 C   0  0  0  0  0  0  0  0  0  0  0  0
   17.0530  -26.9330   42.3190 C   0  0  0  0  0  0  0  0  0  0  0  0
   15.6660  -27.2020   42.8750 C   0  0  0  0  0  0  0  0  0  0  0  0
   16.1880  -27.4910   39.0380 C   0  0  0  0  0  0  0  0  0  0  0  0
   16.8250  -28.4350   38.1240 C   0  0  0  0  0  0  0  0  0  0  0  0
   17.2630  -27.9780   36.7280 C   0  0  0  0  0  0  0  0  0  0  0  0
   17.0080  -26.5390   36.3650 C   0  0  0  0  0  0  0  0  0  0  0  0
   16.3610  -25.5800   37.3050 C   0  0  0  0  0  0  0  0  0  0  0  0
   15.9310  -26.0190   38.6680 C   0  0  0  0  0  0  0  0  0  0  0  0
   13.6560  -29.3380   41.8330 O   0  0  0  0  0  0  0  0  0  0  0  0
   14.9810  -34.4630   38.8960 C   0  0  0  0  0  0  0  0  0  0  0  0
   17.6240  -36.3270   39.3590 C   0  0  0  0  0  0  0  0  0  0  0  0
   19.0270  -36.3330   39.4920 N   0  0  0  0  0  0  0  0  0  0  0  0
   19.9660  -36.7170   38.3980 C   0  0  0  0  0  0  0  0  0  0  0  0
   21.3460  -36.7310   38.5940 N   0  0  0  0  0  0  0  0  0  0  0  0
   19.4100  -37.0940   37.1290 N   0  0  0  0  0  0  0  0  0  0  0  0
  1  2  1  0
  2  3  2  0
  3  4  1  0
  4  5  1  0
  5  6  2  0
  6  7  1  0
  7  8  1  0
  8  9  1  0
  7 10  2  0
 10 11  1  0
 11 12  1  0
 10 13  1  0
 13 14  1  0
 14 15  2  3
 15 16  1  0
 16 17  1  0
 17 18  1  0
 18 19  2  0
 17 20  1  0
 20 21  1  0
 21 22  1  0
 22 23  1  0
 20 24  1  0
 19 25  1  0
 24 25  2  0
 25 26  1  0
 26 27  2  0
 27 28  1  0
 24 29  1  0
 28 29  2  0
 16 30  2  0
  5 31  1  0
 13 31  2  0
  3 32  1  0
 32 33  2  0
 33 34  1  0
 34 35  1  0
  2 36  1  0
 34 36  2  0
M  END
$$$$
