3FL9_TOP_B_200_
     RDKit          3D

 21 22  0  0  0  0  0  0  0  0999 V2000
   17.5597  -36.3322   39.3673 C   0  0  0  0  0  0  0  0  0  0  0  0
   18.8783  -36.2449   39.4637 N   0  0  0  0  0  0  0  0  0  0  0  0
   19.6762  -36.4646   38.4032 C   0  0  0  0  0  0  0  0  0  0  0  0
   21.0006  -36.3763   38.5147 N   0  0  0  0  0  0  0  0  0  0  0  0
   19.1420  -36.7816   37.2188 N   0  0  0  0  0  0  0  0  0  0  0  0
   17.8173  -36.8790   37.0739 C   0  0  0  0  0  0  0  0  0  0  0  0
   17.2985  -37.1917   35.8939 N   0  0  0  0  0  0  0  0  0  0  0  0
   16.9755  -36.6528   38.1465 C   0  0  0  0  0  0  0  0  0  0  0  0
   15.4544  -36.7684   38.0116 C   0  0  0  0  0  0  0  0  0  0  0  0
   14.7330  -35.6944   38.8177 C   0  0  0  0  0  0  0  0  0  0  0  0
   13.6442  -36.0521   39.6053 C   0  0  0  0  0  0  0  0  0  0  0  0
   12.9615  -35.0954   40.3522 C   0  0  0  0  0  0  0  0  0  0  0  0
   11.8946  -35.4772   41.1227 O   0  0  0  0  0  0  0  0  0  0  0  0
   11.1993  -36.6183   40.5946 C   0  0  0  0  0  0  0  0  0  0  0  0
   13.3819  -33.7566   40.2855 C   0  0  0  0  0  0  0  0  0  0  0  0
   12.7631  -32.7665   40.9948 O   0  0  0  0  0  0  0  0  0  0  0  0
   12.2706  -33.1999   42.2719 C   0  0  0  0  0  0  0  0  0  0  0  0
   14.4765  -33.4023   39.4930 C   0  0  0  0  0  0  0  0  0  0  0  0
   14.8855  -32.1018   39.4370 O   0  0  0  0  0  0  0  0  0  0  0  0
   16.2978  -32.0022   39.2028 C   0  0  0  0  0  0  0  0  0  0  0  0
   15.1489  -34.3692   38.7525 C   0  0  0  0  0  0  0  0  0  0  0  0
  1  2  2  0
  2  3  1  0
  3  4  1  0
  3  5  2  0
  5  6  1  0
  6  7  1  0
  1  8  1  0
  6  8  2  0
  8  9  1  0
  9 10  1  0
 10 11  2  0
 11 12  1  0
 12 13  1  0
 13 14  1  0
 12 15  2  0
 15 16  1  0
 16 17  1  0
 15 18  1  0
 18 19  1  0
 19 20  1  0
 10 21  1  0
 18 21  2  0
M  END
$$$$
