3F3U_1AW_A_1_
     RDKit          3D

 26 28  0  0  0  0  0  0  0  0999 V2000
   -5.1534   35.5115  -10.3929 C   0  0  0  0  0  0  0  0  0  0  0  0
   -6.2257   36.3782  -10.1169 C   0  0  0  0  0  0  0  0  0  0  0  0
   -6.6478   36.5904   -8.7947 C   0  0  0  0  0  0  0  0  0  0  0  0
   -5.9798   35.9389   -7.7598 C   0  0  0  0  0  0  0  0  0  0  0  0
   -4.9116   35.0742   -8.0388 C   0  0  0  0  0  0  0  0  0  0  0  0
   -4.4894   34.8550   -9.3549 C   0  0  0  0  0  0  0  0  0  0  0  0
   -3.4774   34.0423   -9.6574 N   0  0  0  0  0  0  0  0  0  0  0  0
   -2.9910   33.0596   -8.8840 C   0  0  0  0  0  0  0  0  0  0  0  0
   -3.4319   32.8038   -7.7559 O   0  0  0  0  0  0  0  0  0  0  0  0
   -1.9605   32.4025   -9.4466 N   0  0  0  0  0  0  0  0  0  0  0  0
   -1.2689   31.3600   -8.9290 C   0  0  0  0  0  0  0  0  0  0  0  0
   -1.7906   30.2842   -8.3472 C   0  0  0  0  0  0  0  0  0  0  0  0
   -0.7423   29.5280   -8.0265 C   0  0  0  0  0  0  0  0  0  0  0  0
   -0.7907   28.1600   -7.3170 C   0  0  0  0  0  0  0  0  0  0  0  0
   -1.8827   27.3582   -8.0136 C   0  0  0  0  0  0  0  0  0  0  0  0
    0.5678   27.4708   -7.3993 C   0  0  0  0  0  0  0  0  0  0  0  0
   -1.1236   28.2879   -5.8327 C   0  0  0  0  0  0  0  0  0  0  0  0
    0.3633   30.1306   -8.4162 N   0  0  0  0  0  0  0  0  0  0  0  0
    0.0566   31.1963   -8.9486 N   0  0  0  0  0  0  0  0  0  0  0  0
    0.9737   32.0255   -9.4708 C   0  0  0  0  0  0  0  0  0  0  0  0
    1.0106   33.4080   -9.1950 C   0  0  0  0  0  0  0  0  0  0  0  0
    1.9258   31.4568  -10.3408 C   0  0  0  0  0  0  0  0  0  0  0  0
    2.9110   32.2447  -10.9158 C   0  0  0  0  0  0  0  0  0  0  0  0
    2.9410   33.6102  -10.6308 C   0  0  0  0  0  0  0  0  0  0  0  0
    2.0097   34.2018   -9.7832 C   0  0  0  0  0  0  0  0  0  0  0  0
    2.0919   35.5170   -9.5447 N   0  0  0  0  0  0  0  0  0  0  0  0
  1  2  2  0
  2  3  1  0
  3  4  2  0
  4  5  1  0
  1  6  1  0
  5  6  2  0
  6  7  1  0
  7  8  1  0
  8  9  2  0
  8 10  1  0
 10 11  1  0
 11 12  2  0
 12 13  1  0
 13 14  1  0
 14 15  1  0
 14 16  1  0
 14 17  1  0
 13 18  2  0
 11 19  1  0
 18 19  1  0
 19 20  1  0
 20 21  2  0
 20 22  1  0
 22 23  2  0
 23 24  1  0
 21 25  1  0
 24 25  2  0
 25 26  1  0
M  END
$$$$
