3MVL_38P_A_361_
     RDKit          3D

 30 33  0  0  0  0  0  0  0  0999 V2000
   -1.5012   36.9847   16.7355 N   0  0  0  0  0  0  0  0  0  0  0  0
   -1.5556   35.7220   16.6916 N   0  0  0  0  0  0  0  0  0  0  0  0
   -2.0065   34.9900   17.7638 C   0  0  0  0  0  0  0  0  0  0  0  0
   -2.4199   35.6037   18.9282 N   0  0  0  0  0  0  0  0  0  0  0  0
   -2.4005   36.9819   19.0772 C   0  0  0  0  0  0  0  0  0  0  0  0
   -1.9037   37.7678   17.8967 C   0  0  0  0  0  0  0  0  0  0  0  0
   -1.7261   39.0734   17.6252 C   0  0  0  0  0  0  0  0  0  0  0  0
   -1.1853   39.1545   16.2278 C   0  0  0  0  0  0  0  0  0  0  0  0
   -1.0582   37.9113   15.7147 C   0  0  0  0  0  0  0  0  0  0  0  0
   -0.8071   40.3765   15.4206 C   0  0  0  0  0  0  0  0  0  0  0  0
   -0.5131   41.4362   15.9749 O   0  0  0  0  0  0  0  0  0  0  0  0
   -0.8135   40.2256   14.0655 N   0  0  0  0  0  0  0  0  0  0  0  0
    0.2086   40.8531   13.2206 C   0  0  0  0  0  0  0  0  0  0  0  0
   -0.1969   40.7631   11.7475 C   0  0  0  0  0  0  0  0  0  0  0  0
   -1.3583   41.6963   11.4062 C   0  0  0  0  0  0  0  0  0  0  0  0
   -1.9845   40.2937   18.4746 C   0  0  0  0  0  0  0  0  0  0  0  0
   -2.8370   37.4664   20.2831 N   0  0  0  0  0  0  0  0  0  0  0  0
   -2.9630   36.6485   21.3800 C   0  0  0  0  0  0  0  0  0  0  0  0
   -4.2492   36.2284   21.8660 C   0  0  0  0  0  0  0  0  0  0  0  0
   -4.2974   35.3835   23.0069 C   0  0  0  0  0  0  0  0  0  0  0  0
   -3.1059   34.9587   23.6601 C   0  0  0  0  0  0  0  0  0  0  0  0
   -1.8263   35.3720   23.1825 C   0  0  0  0  0  0  0  0  0  0  0  0
   -1.7837   36.2103   22.0510 C   0  0  0  0  0  0  0  0  0  0  0  0
   -0.5186   34.9831   23.7945 C   0  0  0  0  0  0  0  0  0  0  0  0
    0.5335   35.4944   23.3968 O   0  0  0  0  0  0  0  0  0  0  0  0
   -0.5044   34.0487   24.8047 N   0  0  0  0  0  0  0  0  0  0  0  0
    0.3563   34.2842   25.9385 C   0  0  0  0  0  0  0  0  0  0  0  0
    0.9536   32.8952   25.8669 C   0  0  0  0  0  0  0  0  0  0  0  0
    0.2056   33.3877   27.0594 C   0  0  0  0  0  0  0  0  0  0  0  0
   -5.5294   36.6663   21.1916 C   0  0  0  0  0  0  0  0  0  0  0  0
  1  2  1  0
  2  3  2  0
  3  4  1  0
  4  5  2  0
  1  6  1  0
  5  6  1  0
  6  7  2  0
  7  8  1  0
  1  9  1  0
  8  9  2  0
  8 10  1  0
 10 11  2  0
 10 12  1  0
 12 13  1  0
 13 14  1  0
 14 15  1  0
  7 16  1  0
  5 17  1  0
 17 18  1  0
 18 19  2  0
 19 20  1  0
 20 21  2  0
 21 22  1  0
 18 23  1  0
 22 23  2  0
 22 24  1  0
 24 25  2  0
 24 26  1  0
 26 27  1  0
 27 28  1  0
 27 29  1  0
 28 29  1  0
 19 30  1  0
M  END
$$$$
