1O2S_CR4_A_246_B
     RDKit          3D

 31 33  0  0  0  0  0  0  0  0999 V2000
   44.2954   -3.1117   26.1115 C   0  0  0  0  0  0  0  0  0  0  0  0
   44.7160   -1.7722   26.2662 C   0  0  0  0  0  0  0  0  0  0  0  0
   44.6737   -1.1445   27.5044 C   0  0  0  0  0  0  0  0  0  0  0  0
   44.2156   -1.8723   28.5630 C   0  0  0  0  0  0  0  0  0  0  0  0
   43.8021   -3.1500   28.4614 C   0  0  0  0  0  0  0  0  0  0  0  0
   43.8264   -3.8127   27.2411 C   0  0  0  0  0  0  0  0  0  0  0  0
   44.3587   -3.7264   24.8543 C   0  0  0  0  0  0  0  0  0  0  0  0
   44.0892   -5.0074   24.7418 N   0  0  0  0  0  0  0  0  0  0  0  0
   44.6888   -3.0062   23.8057 N   0  0  0  0  0  0  0  0  0  0  0  0
   44.0855   -1.5584   29.7916 N   0  0  0  0  0  0  0  0  0  0  0  0
   43.4047   -3.6422   29.6064 N   0  0  0  0  0  0  0  0  0  0  0  0
   43.6055   -2.6023   30.4015 C   0  0  0  0  0  0  0  0  0  0  0  0
   43.3756   -2.5704   31.7796 C   0  0  0  0  0  0  0  0  0  0  0  0
   43.6358   -1.3655   32.4640 C   0  0  0  0  0  0  0  0  0  0  0  0
   43.4320   -1.2706   33.8261 C   0  0  0  0  0  0  0  0  0  0  0  0
   42.9660   -2.3717   34.5309 C   0  0  0  0  0  0  0  0  0  0  0  0
   42.7027   -3.5687   33.8745 C   0  0  0  0  0  0  0  0  0  0  0  0
   42.9015   -3.6835   32.5033 C   0  0  0  0  0  0  0  0  0  0  0  0
   42.6161   -4.9036   31.9179 O   0  0  0  0  0  0  0  0  0  0  0  0
   45.0776   -1.2025   25.4283 H   0  0  0  0  0  0  0  0  0  0  0  0
   44.9905   -0.1216   27.6385 H   0  0  0  0  0  0  0  0  0  0  0  0
   43.4905   -4.8376   27.1771 H   0  0  0  0  0  0  0  0  0  0  0  0
   43.8697   -5.5355   25.5757 H   0  0  0  0  0  0  0  0  0  0  0  0
   44.1008   -5.5218   23.8907 H   0  0  0  0  0  0  0  0  0  0  0  0
   44.8725   -2.0219   23.9167 H   0  0  0  0  0  0  0  0  0  0  0  0
   44.8048   -3.3717   22.8880 H   0  0  0  0  0  0  0  0  0  0  0  0
   44.2948   -0.7108   30.2143 H   0  0  0  0  0  0  0  0  0  0  0  0
   44.0013   -0.4914   31.9427 H   0  0  0  0  0  0  0  0  0  0  0  0
   43.6366   -0.3402   34.3390 H   0  0  0  0  0  0  0  0  0  0  0  0
   42.8091   -2.2924   35.5951 H   0  0  0  0  0  0  0  0  0  0  0  0
   42.3443   -4.4169   34.4378 H   0  0  0  0  0  0  0  0  0  0  0  0
  1  2  2  0
  2  3  1  0
  3  4  2  0
  4  5  1  0
  1  6  1  0
  5  6  2  0
  1  7  1  0
  7  8  1  0
  7  9  2  0
  4 10  1  0
  5 11  1  0
 10 12  1  0
 11 12  2  0
 12 13  1  0
 13 14  2  0
 14 15  1  0
 15 16  2  0
 16 17  1  0
 13 18  1  0
 17 18  2  0
 18 19  1  0
  2 20  1  0
  3 21  1  0
  6 22  1  0
  8 23  1  0
  8 24  1  0
  9 25  1  0
  9 26  1  0
 10 27  1  0
 14 28  1  0
 15 29  1  0
 16 30  1  0
 17 31  1  0
M  CHG  2   9   1  19  -1
M  END
$$$$
