3QCS_3Q1_A_370_
     RDKit          3D

 23 26  0  0  0  0  0  0  0  0999 V2000
  -40.7933   16.4718   12.9293 C   0  0  0  0  0  0  0  0  0  0  0  0
  -41.9556   17.1567   12.6437 C   0  0  0  0  0  0  0  0  0  0  0  0
  -43.0776   15.2035   11.8561 C   0  0  0  0  0  0  0  0  0  0  0  0
  -44.5530   18.5565   12.2822 C   0  0  0  0  0  0  0  0  0  0  0  0
  -40.7891   15.1128   12.6675 C   0  0  0  0  0  0  0  0  0  0  0  0
  -43.0738   16.5565   12.1138 C   0  0  0  0  0  0  0  0  0  0  0  0
  -41.9202   14.5266   12.1488 C   0  0  0  0  0  0  0  0  0  0  0  0
  -44.2772   17.2945   11.8097 C   0  0  0  0  0  0  0  0  0  0  0  0
  -45.7672   19.1088   11.9346 C   0  0  0  0  0  0  0  0  0  0  0  0
  -39.8516   14.0509   12.8015 C   0  0  0  0  0  0  0  0  0  0  0  0
  -46.2959   17.2234   10.7555 C   0  0  0  0  0  0  0  0  0  0  0  0
  -44.9059   21.0479   12.9426 C   0  0  0  0  0  0  0  0  0  0  0  0
  -47.0393   21.0544   11.5362 C   0  0  0  0  0  0  0  0  0  0  0  0
  -44.7784   22.4797   12.4827 C   0  0  0  0  0  0  0  0  0  0  0  0
  -46.6545   22.4813   11.2418 C   0  0  0  0  0  0  0  0  0  0  0  0
  -45.1427   16.6194   11.0508 N   0  0  0  0  0  0  0  0  0  0  0  0
  -46.6437   18.4467   11.1718 N   0  0  0  0  0  0  0  0  0  0  0  0
  -40.3658   12.8875   12.3922 N   0  0  0  0  0  0  0  0  0  0  0  0
  -41.6109   13.2031   12.0038 N   0  0  0  0  0  0  0  0  0  0  0  0
  -46.0900   20.3886   12.4163 N   0  0  0  0  0  0  0  0  0  0  0  0
  -38.6020   14.2386   13.2869 N   0  0  0  0  0  0  0  0  0  0  0  0
  -47.1944   16.5076    9.9624 N   0  0  0  0  0  0  0  0  0  0  0  0
  -46.0752   23.0417   12.4133 O   0  0  0  0  0  0  0  0  0  0  0  0
  1  2  2  0
  1  5  1  0
  2  6  1  0
  3  6  2  0
  3  7  1  0
  5  7  1  0
  4  8  2  0
  6  8  1  0
  4  9  1  0
  5 10  2  0
 12 14  1  0
 13 15  1  0
  8 16  1  0
 11 16  2  0
  9 17  2  0
 11 17  1  0
 10 18  1  0
  7 19  2  0
 18 19  1  0
  9 20  1  0
 12 20  1  0
 13 20  1  0
 10 21  1  0
 11 22  1  0
 14 23  1  0
 15 23  1  0
M  END
$$$$
