3TLL_62D_A_501_B
     RDKit          3D

 19 21  0  0  0  0  0  0  0  0999 V2000
   17.3531   17.3079   17.2948 N   0  0  0  0  0  0  0  0  0  0  0  0
   19.3326   17.9623   17.9187 N   0  0  0  0  0  0  0  0  0  0  0  0
   18.6419   17.7868   16.8622 C   0  0  0  0  0  0  0  0  0  0  0  0
   18.0537   17.7133   14.5195 C   0  0  0  0  0  0  0  0  0  0  0  0
   18.6267   17.6405   19.1149 C   0  0  0  0  0  0  0  0  0  0  0  0
   18.9847   17.6849   20.4227 C   0  0  0  0  0  0  0  0  0  0  0  0
   17.9220   17.2684   21.3858 C   0  0  0  0  0  0  0  0  0  0  0  0
   15.9111   16.4835   23.1065 C   0  0  0  0  0  0  0  0  0  0  0  0
   16.6110   16.8396   20.8488 C   0  0  0  0  0  0  0  0  0  0  0  0
   16.3041   16.7855   19.5271 C   0  0  0  0  0  0  0  0  0  0  0  0
   17.3327   17.2111   18.6039 C   0  0  0  0  0  0  0  0  0  0  0  0
   18.9521   17.9966   15.6159 N   0  0  0  0  0  0  0  0  0  0  0  0
   18.0622   17.2869   22.7327 C   0  0  0  0  0  0  0  0  0  0  0  0
   19.1701   17.7288   23.2975 O   0  0  0  0  0  0  0  0  0  0  0  0
   17.0756   16.9598   23.5629 N   0  0  0  0  0  0  0  0  0  0  0  0
   14.9918   16.1254   23.9630 N   0  0  0  0  0  0  0  0  0  0  0  0
   13.6587   15.6051   23.6810 C   0  0  0  0  0  0  0  0  0  0  0  0
   15.6573   16.4215   21.8300 N   0  0  0  0  0  0  0  0  0  0  0  0
   12.6893   16.5413   22.9602 C   0  0  0  0  0  0  0  0  0  0  0  0
  1  3  1  0
  2  3  2  0
  2  5  1  0
  5  6  1  0
  6  7  2  0
  7  9  1  0
  9 10  2  0
  1 11  1  0
  5 11  2  0
 10 11  1  0
  3 12  1  0
  4 12  1  0
  7 13  1  0
 13 14  2  0
  8 15  1  0
 13 15  1  0
  8 16  1  0
 16 17  1  0
  8 18  2  0
  9 18  1  0
 17 19  1  0
M  END
$$$$
