3IBI_BOW_A_300_
     RDKit          3D

 13 12  0  0  0  0  0  0  0  0999 V2000
   -4.7037    1.9802   14.6655 C   0  0  0  0  0  0  0  0  0  0  0  0
   -5.3354   -0.5394   16.2023 N   0  0  0  0  0  0  0  0  0  0  0  0
   -7.1043    1.1367   16.4330 O   0  0  0  0  0  0  0  0  0  0  0  0
   -5.7674    0.8568   16.8067 S   0  0  0  0  0  0  0  0  0  0  0  0
   -5.4358    3.2151   14.1595 C   0  0  0  0  0  0  0  0  0  0  0  0
   -5.4332    0.8759   18.1847 O   0  0  0  0  0  0  0  0  0  0  0  0
   -4.8374    4.5245   14.6152 C   0  0  0  0  0  0  0  0  0  0  0  0
   -4.8422    1.9524   16.1306 O   0  0  0  0  0  0  0  0  0  0  0  0
   -3.7157    5.0345   13.7416 C   0  0  0  0  0  0  0  0  0  0  0  0
   -2.9072    6.1280   14.3859 C   0  0  0  0  0  0  0  0  0  0  0  0
   -2.1963    7.0289   13.4045 C   0  0  0  0  0  0  0  0  0  0  0  0
   -1.1056    7.8925   14.0128 C   0  0  0  0  0  0  0  0  0  0  0  0
   -1.5708    8.8577   15.0742 C   0  0  0  0  0  0  0  0  0  0  0  0
  2  4  1  0
  3  4  2  0
  1  5  1  0
  4  6  2  0
  5  7  1  0
  1  8  1  0
  4  8  1  0
  7  9  1  0
  9 10  1  0
 10 11  1  0
 11 12  1  0
 12 13  1  0
M  END
$$$$
