3IXG_BZB_B_362_
     RDKit          3D

 12 13  0  0  0  0  0  0  0  0999 V2000
   -3.1264    4.8071   59.0823 B   0  0  0  0  0  0  0  0  0  0  0  0
   -2.7017    5.2330   60.4893 O   0  0  0  0  0  0  0  0  0  0  0  0
   -3.8175    3.4396   58.9363 O   0  0  0  0  0  0  0  0  0  0  0  0
   -3.6111    5.8685   58.0675 C   0  0  0  0  0  0  0  0  0  0  0  0
   -3.7464    7.2502   58.2715 C   0  0  0  0  0  0  0  0  0  0  0  0
   -4.5074    6.7961   55.9448 C   0  0  0  0  0  0  0  0  0  0  0  0
   -4.2755    7.7994   57.0127 C   0  0  0  0  0  0  0  0  0  0  0  0
   -4.9996    7.1172   54.6756 C   0  0  0  0  0  0  0  0  0  0  0  0
   -4.0783    5.2797   56.5094 S   0  0  0  0  0  0  0  0  0  0  0  0
   -4.5895    9.1272   56.6876 C   0  0  0  0  0  0  0  0  0  0  0  0
   -5.2959    8.4669   54.4205 C   0  0  0  0  0  0  0  0  0  0  0  0
   -5.0907    9.4418   55.4113 C   0  0  0  0  0  0  0  0  0  0  0  0
  1  2  1  0
  1  3  1  0
  1  4  1  0
  4  5  2  0
  5  7  1  0
  6  7  2  0
  6  8  1  0
  4  9  1  0
  6  9  1  0
  7 10  1  0
  8 11  2  0
 10 12  2  0
 11 12  1  0
M  END
$$$$
