3C56_PH4_B_309_
     RDKit          3D

 18 17  0  0  0  0  0  0  0  0999 V2000
   -1.5360  -32.0210  -33.6400 N   0  0  0  0  0  0  0  0  0  0  0  0
   -1.0100  -30.8300  -32.9720 C   0  0  0  0  0  0  0  0  0  0  0  0
    0.4860  -31.0330  -32.6520 C   0  0  0  0  0  0  0  0  0  0  0  0
    1.0080  -29.8400  -31.8310 C   0  0  0  0  0  0  0  0  0  0  0  0
    3.0340  -26.7950  -32.6360 O   0  0  0  0  0  0  0  0  0  0  0  0
    3.0210  -28.1410  -31.6850 P   0  0  0  0  0  0  0  0  0  0  0  0
    2.3180  -27.7880  -30.2400 O   0  0  0  0  0  0  0  0  0  0  0  0
    4.3920  -28.5920  -31.4620 O   0  0  0  0  0  0  0  0  0  0  0  0
    2.1670  -29.3330  -32.4350 O   0  0  0  0  0  0  0  0  0  0  0  0
   -1.3140  -33.2940  -33.0860 O   0  0  0  0  0  0  0  0  0  0  0  0
   -2.2960  -31.8890  -34.8840 C   0  0  0  0  0  0  0  0  0  0  0  0
   -2.7230  -32.8570  -35.4260 O   0  0  0  0  0  0  0  0  0  0  0  0
   -2.5410  -30.4980  -35.4920 C   0  0  0  0  0  0  0  0  0  0  0  0
   -3.7700  -30.4930  -36.1670 O   0  0  0  0  0  0  0  0  0  0  0  0
   -4.3600  -29.0740  -36.7800 P   0  0  0  0  0  0  0  0  0  0  0  0
   -5.3000  -29.3920  -38.0960 O   0  0  0  0  0  0  0  0  0  0  0  0
   -3.1030  -28.1030  -37.2220 O   0  0  0  0  0  0  0  0  0  0  0  0
   -5.1600  -28.4000  -35.7650 O   0  0  0  0  0  0  0  0  0  0  0  0
  1  2  1  0
  2  3  1  0
  3  4  1  0
  5  6  1  0
  6  7  2  0
  6  8  1  0
  4  9  1  0
  6  9  1  0
  1 10  1  0
  1 11  1  0
 11 12  2  0
 11 13  1  0
 13 14  1  0
 14 15  1  0
 15 16  2  0
 15 17  1  0
 15 18  1  0
M  END
$$$$
