3C52_PGH_A_404_
     RDKit          3D

 10  9  0  0  0  0  0  0  0  0999 V2000
   -2.7823  -32.2382  -34.8317 C   0  0  0  0  0  0  0  0  0  0  0  0
   -3.3726  -30.8312  -34.9852 C   0  0  0  0  0  0  0  0  0  0  0  0
   -2.4280  -32.7397  -33.5098 N   0  0  0  0  0  0  0  0  0  0  0  0
   -1.2252  -33.4407  -33.3236 O   0  0  0  0  0  0  0  0  0  0  0  0
   -2.6141  -32.9191  -35.7898 O   0  0  0  0  0  0  0  0  0  0  0  0
   -3.5762  -30.5536  -36.3474 O   0  0  0  0  0  0  0  0  0  0  0  0
   -5.0619  -29.2116  -38.1582 O   0  0  0  0  0  0  0  0  0  0  0  0
   -5.0331  -28.4141  -35.5840 O   0  0  0  0  0  0  0  0  0  0  0  0
   -2.9938  -28.1857  -37.0888 O   0  0  0  0  0  0  0  0  0  0  0  0
   -4.1301  -29.0622  -36.8041 P   0  0  0  0  0  0  0  0  0  0  0  0
  1  2  1  0
  1  3  1  0
  3  4  1  0
  1  5  2  0
  2  6  1  0
  6 10  1  0
  7 10  2  0
  8 10  1  0
  9 10  1  0
M  END
$$$$
