1DX6_GNT_A_602_
     RDKit          3D

 21 24  0  0  0  0  0  0  0  0999 V2000
    2.5807   68.0243   63.2158 C   0  0  0  0  0  0  0  0  0  0  0  0
    2.7109   68.3932   61.9548 C   0  0  0  0  0  0  0  0  0  0  0  0
    4.0325   68.6231   61.2773 C   0  0  0  0  0  0  0  0  0  0  0  0
    5.2771   68.6224   62.2534 C   0  0  0  0  0  0  0  0  0  0  0  0
    5.1186   67.6145   63.4147 C   0  0  0  0  0  0  0  0  0  0  0  0
    3.7564   67.6852   64.1777 C   0  0  0  0  0  0  0  0  0  0  0  0
    5.2615   66.2357   62.8994 O   0  0  0  0  0  0  0  0  0  0  0  0
    4.6073   64.0267   63.8120 C   0  0  0  0  0  0  0  0  0  0  0  0
    3.7436   63.3942   64.7366 C   0  0  0  0  0  0  0  0  0  0  0  0
    2.8720   64.1346   65.5294 C   0  0  0  0  0  0  0  0  0  0  0  0
    1.8421   66.2929   66.3455 C   0  0  0  0  0  0  0  0  0  0  0  0
    2.4915   67.3874   67.1222 N   0  0  0  0  0  0  0  0  0  0  0  0
    2.6385   68.6562   66.3564 C   0  0  0  0  0  0  0  0  0  0  0  0
    3.8238   68.6310   65.3876 C   0  0  0  0  0  0  0  0  0  0  0  0
    4.5270   65.4446   63.7501 C   0  0  0  0  0  0  0  0  0  0  0  0
    3.6364   66.1912   64.5640 C   0  0  0  0  0  0  0  0  0  0  0  0
    2.7886   65.5465   65.4706 C   0  0  0  0  0  0  0  0  0  0  0  0
    5.4516   62.2633   62.4013 C   0  0  0  0  0  0  0  0  0  0  0  0
    5.6666   63.4116   63.1666 O   0  0  0  0  0  0  0  0  0  0  0  0
    4.2147   67.5951   60.3361 O   0  0  0  0  0  0  0  0  0  0  0  0
    1.7608   67.6002   68.4209 C   0  0  0  0  0  0  0  0  0  0  0  0
  1  2  2  0
  2  3  1  0
  3  4  1  0
  4  5  1  0
  1  6  1  0
  5  6  1  0
  5  7  1  0
  8  9  2  0
  9 10  1  0
 11 12  1  0
 12 13  1  0
  6 14  1  0
 13 14  1  0
  7 15  1  0
  8 15  1  0
  6 16  1  0
 15 16  2  0
 10 17  2  0
 11 17  1  0
 16 17  1  0
  8 19  1  0
 18 19  1  0
  3 20  1  0
 12 21  1  0
M  END
$$$$
