2CES_GIM_A_1447_
     RDKit          3D

 14 15  0  0  0  0  0  0  0  0999 V2000
   -1.0636   10.8105   10.6449 C   0  0  0  0  0  0  0  0  0  0  0  0
   -0.0281   11.5730    9.8069 C   0  0  0  0  0  0  0  0  0  0  0  0
   -2.1350   10.2018   10.0941 N   0  0  0  0  0  0  0  0  0  0  0  0
   -0.4412   11.7068    8.3171 C   0  0  0  0  0  0  0  0  0  0  0  0
   -1.2040   10.4427    7.7794 C   0  0  0  0  0  0  0  0  0  0  0  0
   -2.4648   10.3190    8.6600 C   0  0  0  0  0  0  0  0  0  0  0  0
   -3.6261    9.4178    8.3055 C   0  0  0  0  0  0  0  0  0  0  0  0
   -2.0394    9.7903   12.2928 C   0  0  0  0  0  0  0  0  0  0  0  0
   -2.7123    9.4827   11.0938 C   0  0  0  0  0  0  0  0  0  0  0  0
   -0.9906   10.5919   11.9637 N   0  0  0  0  0  0  0  0  0  0  0  0
    0.7681   12.0142    7.5906 O   0  0  0  0  0  0  0  0  0  0  0  0
    0.5055   12.7358   10.4143 O   0  0  0  0  0  0  0  0  0  0  0  0
   -1.5801   10.6417    6.4084 O   0  0  0  0  0  0  0  0  0  0  0  0
   -3.0214    8.1380    8.6007 O   0  0  0  0  0  0  0  0  0  0  0  0
  1  2  1  0
  1  3  2  0
  2  4  1  0
  4  5  1  0
  3  6  1  0
  5  6  1  0
  6  7  1  0
  3  9  1  0
  8  9  2  0
  1 10  1  0
  8 10  1  0
  4 11  1  0
  2 12  1  0
  5 13  1  0
  7 14  1  0
M  CHG  1   3   1
M  END
$$$$
