3ATI_SZ4_A_6_
     RDKit          3D

 10 10  0  0  0  0  0  0  0  0999 V2000
   10.5821   66.6425    7.0219 N   0  0  0  0  0  0  0  0  0  0  0  0
   11.0386   67.6999   11.9644 O   0  0  0  0  0  0  0  0  0  0  0  0
   11.9720   67.0100    7.1802 C   0  0  0  0  0  0  0  0  0  0  0  0
   12.3858   66.9741    8.6335 C   0  0  0  0  0  0  0  0  0  0  0  0
   13.6708   66.5545    8.9667 C   0  0  0  0  0  0  0  0  0  0  0  0
   14.0747   66.5207   10.2960 C   0  0  0  0  0  0  0  0  0  0  0  0
   13.1860   66.9028   11.2992 C   0  0  0  0  0  0  0  0  0  0  0  0
   11.9002   67.3277   10.9669 C   0  0  0  0  0  0  0  0  0  0  0  0
   10.1231   68.7795   11.7798 C   0  0  0  0  0  0  0  0  0  0  0  0
   11.4969   67.3621    9.6360 C   0  0  0  0  0  0  0  0  0  0  0  0
  1  3  1  0
  3  4  1  0
  4  5  2  0
  5  6  1  0
  6  7  2  0
  2  8  1  0
  7  8  1  0
  2  9  1  0
  4 10  1  0
  8 10  2  0
M  END
$$$$
