1YP9_UIZ_A_2222_
     RDKit          3D

 31 36  0  0  0  0  0  0  0  0999 V2000
   10.2660   67.3520    7.0210 N   0  0  0  0  0  0  0  0  0  0  0  0
   11.5340   67.0880    7.3440 C   0  0  0  0  0  0  0  0  0  0  0  0
   12.2450   66.3720    6.4320 N   0  0  0  0  0  0  0  0  0  0  0  0
   12.1500   67.5160    8.5580 C   0  0  0  0  0  0  0  0  0  0  0  0
   13.4910   67.1870    8.8330 C   0  0  0  0  0  0  0  0  0  0  0  0
   14.0840   67.5970   10.0220 C   0  0  0  0  0  0  0  0  0  0  0  0
   13.3420   68.3480   10.9540 C   0  0  0  0  0  0  0  0  0  0  0  0
   13.9750   68.8110   12.2350 C   0  0  0  0  0  0  0  0  0  0  0  0
   14.5120   70.2480   12.2890 C   0  0  0  0  0  0  0  0  0  0  0  0
   13.4690   71.3620   12.0890 C   0  0  0  0  0  0  0  0  0  0  0  0
   12.4110   71.3280   11.4200 O   0  0  0  0  0  0  0  0  0  0  0  0
   13.8060   72.3910   12.9460 N   0  0  0  0  0  0  0  0  0  0  0  0
   12.8550   73.5570   13.0540 C   0  0  0  0  0  0  0  0  0  0  0  0
   12.9640   74.6170   11.9690 C   0  0  0  0  0  0  0  0  0  0  0  0
   11.8090   75.0460   11.2380 C   0  0  0  0  0  0  0  0  0  0  0  0
   11.8990   76.0360   10.2370 C   0  0  0  0  0  0  0  0  0  0  0  0
   13.1670   76.5720    9.9760 C   0  0  0  0  0  0  0  0  0  0  0  0
   13.5140   77.5350    9.0580 O   0  0  0  0  0  0  0  0  0  0  0  0
   14.9590   77.7100    9.2040 C   0  0  0  0  0  0  0  0  0  0  0  0
   15.4590   76.8310   10.2460 O   0  0  0  0  0  0  0  0  0  0  0  0
   14.3110   76.1590   10.6770 C   0  0  0  0  0  0  0  0  0  0  0  0
   14.2180   75.1770   11.6820 C   0  0  0  0  0  0  0  0  0  0  0  0
   14.6940   71.9390   14.0070 C   0  0  0  0  0  0  0  0  0  0  0  0
   14.8060   70.3970   13.8090 C   0  0  0  0  0  0  0  0  0  0  0  0
   13.6540   69.5850   14.4710 C   0  0  0  0  0  0  0  0  0  0  0  0
   14.2710   68.6490   15.5370 C   0  0  0  0  0  0  0  0  0  0  0  0
   13.3140   67.4730   15.5160 C   0  0  0  0  0  0  0  0  0  0  0  0
   13.0060   67.2820   14.0030 C   0  0  0  0  0  0  0  0  0  0  0  0
   13.0800   68.6520   13.4240 N   0  0  0  0  0  0  0  0  0  0  0  0
   12.0070   68.6620   10.6850 C   0  0  0  0  0  0  0  0  0  0  0  0
   11.4080   68.2550    9.4850 C   0  0  0  0  0  0  0  0  0  0  0  0
  1  2  2  0
  2  3  1  0
  2  4  1  0
  4  5  2  0
  5  6  1  0
  6  7  2  0
  7  8  1  0
  8  9  1  0
  9 10  1  0
 10 11  2  0
 10 12  1  0
 12 13  1  0
 13 14  1  0
 14 15  2  0
 15 16  1  0
 16 17  2  0
 17 18  1  0
 18 19  1  0
 19 20  1  0
 17 21  1  0
 20 21  1  0
 14 22  1  0
 21 22  2  0
 12 23  1  0
  9 24  1  0
 23 24  1  0
 24 25  1  0
 25 26  1  0
 26 27  1  0
 27 28  1  0
  8 29  1  0
 25 29  1  0
 28 29  1  0
  7 30  1  0
  4 31  1  0
 30 31  2  0
M  END
$$$$
