3R00_UNJ_A_1_
     RDKit          3D

 13 14  0  0  0  0  0  0  0  0999 V2000
   17.5118  -35.9192    2.2034 C   0  0  0  0  0  0  0  0  0  0  0  0
   17.9884  -36.8466    3.0861 O   0  0  0  0  0  0  0  0  0  0  0  0
   18.1070  -36.0436    0.9703 C   0  0  0  0  0  0  0  0  0  0  0  0
   18.9876  -37.0581    1.1160 C   0  0  0  0  0  0  0  0  0  0  0  0
   16.3890  -35.0876    2.7504 C   0  0  0  0  0  0  0  0  0  0  0  0
   18.9243  -37.5220    2.4293 C   0  0  0  0  0  0  0  0  0  0  0  0
   19.9286  -37.6691    0.2472 C   0  0  0  0  0  0  0  0  0  0  0  0
   15.9414  -34.1484    2.0537 O   0  0  0  0  0  0  0  0  0  0  0  0
   19.7168  -38.5170    2.9720 C   0  0  0  0  0  0  0  0  0  0  0  0
   20.6831  -38.6872    0.8159 C   0  0  0  0  0  0  0  0  0  0  0  0
   15.9077  -35.4701    3.8998 O   0  0  0  0  0  0  0  0  0  0  0  0
   20.5788  -39.1250    2.1062 C   0  0  0  0  0  0  0  0  0  0  0  0
   21.9960  -39.7082   -0.1534 Br  0  0  0  0  0  0  0  0  0  0  0  0
  1  2  1  0
  1  3  2  0
  3  4  1  0
  1  5  1  0
  2  6  1  0
  4  6  2  0
  4  7  1  0
  5  8  1  0
  6  9  1  0
  7 10  2  0
  5 11  2  0
  9 12  2  0
 10 12  1  0
 10 13  1  0
M  END
$$$$
