3R02_UNM_A_555_
     RDKit          3D

 21 23  0  0  0  0  0  0  0  0999 V2000
   20.7180  -38.6020    0.8390 C   0  0  0  0  0  0  0  0  0  0  0  0
   19.0230  -37.5340    2.0420 C   0  0  0  0  0  0  0  0  0  0  0  0
   20.0680  -38.4750    2.0560 C   0  0  0  0  0  0  0  0  0  0  0  0
   18.7520  -36.7700    0.9030 C   0  0  0  0  0  0  0  0  0  0  0  0
   20.4420  -37.9490   -0.3510 C   0  0  0  0  0  0  0  0  0  0  0  0
   19.4000  -36.9570   -0.3280 C   0  0  0  0  0  0  0  0  0  0  0  0
   17.7960  -35.8540    1.0860 O   0  0  0  0  0  0  0  0  0  0  0  0
   18.1690  -37.0070    3.0720 C   0  0  0  0  0  0  0  0  0  0  0  0
   17.4610  -36.0250    2.3810 C   0  0  0  0  0  0  0  0  0  0  0  0
   16.3790  -35.2020    2.8340 C   0  0  0  0  0  0  0  0  0  0  0  0
   15.8860  -34.3610    2.0210 O   0  0  0  0  0  0  0  0  0  0  0  0
   15.8820  -35.4370    4.0440 O   0  0  0  0  0  0  0  0  0  0  0  0
   22.1270  -39.9960    0.6740 Br  0  0  0  0  0  0  0  0  0  0  0  0
   19.7050  -36.5090   -2.8550 C   0  0  0  0  0  0  0  0  0  0  0  0
   19.2250  -37.9060   -3.4430 C   0  0  0  0  0  0  0  0  0  0  0  0
   17.6750  -37.9430   -3.6260 C   0  0  0  0  0  0  0  0  0  0  0  0
   17.1310  -36.8660   -4.6520 C   0  0  0  0  0  0  0  0  0  0  0  0
   17.6660  -35.4520   -4.1710 C   0  0  0  0  0  0  0  0  0  0  0  0
   19.1850  -35.4500   -3.8400 C   0  0  0  0  0  0  0  0  0  0  0  0
   15.6810  -36.9290   -4.9170 N   0  0  0  0  0  0  0  0  0  0  0  0
   19.1320  -36.2350   -1.4740 N   0  0  0  0  0  0  0  0  0  0  0  0
  1  3  2  0
  2  3  1  0
  2  4  2  0
  1  5  1  0
  4  6  1  0
  5  6  2  0
  4  7  1  0
  2  8  1  0
  7  9  1  0
  8  9  2  0
  9 10  1  0
 10 11  2  0
 10 12  1  0
  1 13  1  0
 14 15  1  0
 15 16  1  0
 16 17  1  0
 17 18  1  0
 14 19  1  0
 18 19  1  0
 17 20  1  0
  6 21  1  0
 14 21  1  0
M  END
$$$$
