2AA9_SKM_A_501_
     RDKit          3D

 12 12  0  0  0  0  0  0  0  0999 V2000
   55.8452    8.3608   30.5565 O   0  0  0  0  0  0  0  0  0  0  0  0
   55.7921    9.6517   29.9680 C   0  0  0  0  0  0  0  0  0  0  0  0
   57.0755    9.9933   29.2166 C   0  0  0  0  0  0  0  0  0  0  0  0
   58.2073    9.8970   30.0950 O   0  0  0  0  0  0  0  0  0  0  0  0
   56.9399   11.4285   28.6809 C   0  0  0  0  0  0  0  0  0  0  0  0
   55.6942   11.7977   28.0727 C   0  0  0  0  0  0  0  0  0  0  0  0
   55.5746   13.0895   27.2763 C   0  0  0  0  0  0  0  0  0  0  0  0
   54.6871   13.1383   26.3906 O   0  0  0  0  0  0  0  0  0  0  0  0
   56.2927   14.0491   27.5606 O   0  0  0  0  0  0  0  0  0  0  0  0
   54.5377   10.9992   28.2300 C   0  0  0  0  0  0  0  0  0  0  0  0
   54.5805    9.7041   29.0084 C   0  0  0  0  0  0  0  0  0  0  0  0
   54.6008    8.6121   28.1054 O   0  0  0  0  0  0  0  0  0  0  0  0
  1  2  1  0
  2  3  1  0
  3  4  1  0
  3  5  1  0
  5  6  1  0
  6  7  1  0
  7  8  1  0
  7  9  2  0
  6 10  2  0
  2 11  1  0
 10 11  1  0
 11 12  1  0
M  END
$$$$
