3O87_BSG_A_1_AA
     RDKit          3D

 18 18  0  0  0  0  0  0  0  0999 V2000
   83.4063    5.4308   37.3555 O   0  0  0  0  0  0  0  0  0  0  0  0
   80.8068    8.4293   30.6248 O   0  0  0  0  0  0  0  0  0  0  0  0
   78.9233    7.8213   32.1853 O   0  0  0  0  0  0  0  0  0  0  0  0
   85.0425    6.1267   36.0535 O   0  0  0  0  0  0  0  0  0  0  0  0
   77.1563    5.9735   27.3103 O   0  0  0  0  0  0  0  0  0  0  0  0
   78.2085    4.1656   28.6059 O   0  0  0  0  0  0  0  0  0  0  0  0
   80.7595    5.7150   33.9741 C   0  0  0  0  0  0  0  0  0  0  0  0
   82.7413    6.0689   32.6254 C   0  0  0  0  0  0  0  0  0  0  0  0
   81.5400    5.6678   35.1237 C   0  0  0  0  0  0  0  0  0  0  0  0
   83.5145    6.0192   33.7796 C   0  0  0  0  0  0  0  0  0  0  0  0
   77.6120    6.3535   29.9216 C   0  0  0  0  0  0  0  0  0  0  0  0
   80.5628    5.8862   31.4639 C   0  0  0  0  0  0  0  0  0  0  0  0
   78.9063    6.9696   29.6396 N   0  0  0  0  0  0  0  0  0  0  0  0
   83.8518    5.7971   36.2449 C   0  0  0  0  0  0  0  0  0  0  0  0
   81.3673    5.9158   32.7367 C   0  0  0  0  0  0  0  0  0  0  0  0
   82.9180    5.8845   35.0288 C   0  0  0  0  0  0  0  0  0  0  0  0
   79.7346    7.4340   30.9911 S   0  0  0  0  0  0  0  0  0  0  0  0
   77.2548    5.3690   28.6840 B   0  0  0  0  0  0  0  0  0  0  0  0
  7  9  2  0
  8 10  1  0
 11 13  1  0
  1 14  1  0
  4 14  2  0
  7 15  1  0
  8 15  2  0
 12 15  1  0
  9 16  1  0
 10 16  2  0
 14 16  1  0
  2 17  2  0
  3 17  2  0
 12 17  1  0
 13 17  1  0
  5 18  1  0
  6 18  1  0
 11 18  1  0
M  END
$$$$
