3LK8_Z79_A_0_
     RDKit          3D

 17 17  0  0  0  0  0  0  0  0999 V2000
   39.3828   43.4580   49.3703 O   0  0  0  0  0  0  0  0  0  0  0  0
   38.8057   44.4030   48.8494 C   0  0  0  0  0  0  0  0  0  0  0  0
   39.3735   45.1848   47.9176 N   0  0  0  0  0  0  0  0  0  0  0  0
   40.6962   44.9712   47.5646 O   0  0  0  0  0  0  0  0  0  0  0  0
   37.3790   44.7363   49.2478 C   0  0  0  0  0  0  0  0  0  0  0  0
   37.2766   44.9116   50.6796 N   0  0  0  0  0  0  0  0  0  0  0  0
   37.6995   46.2967   51.3334 S   0  0  0  0  0  0  0  0  0  0  0  0
   37.4150   47.3233   50.3397 O   0  0  0  0  0  0  0  0  0  0  0  0
   36.9260   46.5673   52.5176 O   0  0  0  0  0  0  0  0  0  0  0  0
   39.2468   46.4474   51.7567 C   0  0  0  0  0  0  0  0  0  0  0  0
   40.1291   47.1265   50.9000 C   0  0  0  0  0  0  0  0  0  0  0  0
   41.4619   47.3344   51.2626 C   0  0  0  0  0  0  0  0  0  0  0  0
   41.9276   46.8683   52.4806 C   0  0  0  0  0  0  0  0  0  0  0  0
   43.2408   47.0915   52.8120 O   0  0  0  0  0  0  0  0  0  0  0  0
   43.7179   46.9213   54.1439 C   0  0  0  0  0  0  0  0  0  0  0  0
   41.0514   46.2025   53.3554 C   0  0  0  0  0  0  0  0  0  0  0  0
   39.7179   45.9966   52.9918 C   0  0  0  0  0  0  0  0  0  0  0  0
  1  2  2  0
  2  3  1  0
  3  4  1  0
  2  5  1  0
  5  6  1  0
  6  7  1  0
  7  8  2  0
  7  9  2  0
  7 10  1  0
 10 11  2  0
 11 12  1  0
 12 13  2  0
 13 14  1  0
 14 15  1  0
 13 16  1  0
 10 17  1  0
 16 17  2  0
M  END
$$$$
