2YM4_4YM_A_1271_
     RDKit          3D

 30 33  0  0  0  0  0  0  0  0999 V2000
   21.2950    0.4780    7.4970 C   0  0  0  0  0  0  0  0  0  0  0  0
   20.6870   -0.7620    8.0660 C   0  0  0  0  0  0  0  0  0  0  0  0
   19.9370   -0.6480    9.2140 O   0  0  0  0  0  0  0  0  0  0  0  0
   18.7820   -1.3940    9.3220 C   0  0  0  0  0  0  0  0  0  0  0  0
   18.8350   -2.6090    9.2660 O   0  0  0  0  0  0  0  0  0  0  0  0
   17.4850   -0.6730    9.4500 C   0  0  0  0  0  0  0  0  0  0  0  0
   17.3620    0.4930    8.6890 C   0  0  0  0  0  0  0  0  0  0  0  0
   16.2390    1.2250    8.7260 N   0  0  0  0  0  0  0  0  0  0  0  0
   15.1710    0.8480    9.5140 C   0  0  0  0  0  0  0  0  0  0  0  0
   13.9550    1.4870    9.6610 N   0  0  0  0  0  0  0  0  0  0  0  0
   13.2000    0.7680   10.5380 N   0  0  0  0  0  0  0  0  0  0  0  0
   13.9180   -0.2960   10.9430 C   0  0  0  0  0  0  0  0  0  0  0  0
   13.4460   -1.2410   11.8270 C   0  0  0  0  0  0  0  0  0  0  0  0
   14.3050   -2.1330   12.4450 C   0  0  0  0  0  0  0  0  0  0  0  0
   13.8160   -3.0860   13.3290 C   0  0  0  0  0  0  0  0  0  0  0  0
   12.4620   -3.1460   13.5990 C   0  0  0  0  0  0  0  0  0  0  0  0
   11.6010   -2.2570   12.9840 C   0  0  0  0  0  0  0  0  0  0  0  0
   10.1480   -2.3260   13.2780 C   0  0  0  0  0  0  0  0  0  0  0  0
    9.0410   -2.3810   13.5050 N   0  0  0  0  0  0  0  0  0  0  0  0
   12.0890   -1.3030   12.0960 C   0  0  0  0  0  0  0  0  0  0  0  0
   15.2080   -0.2880   10.2960 C   0  0  0  0  0  0  0  0  0  0  0  0
   16.4150   -1.0830   10.2750 C   0  0  0  0  0  0  0  0  0  0  0  0
   16.5280   -2.2990   11.0620 N   0  0  0  0  0  0  0  0  0  0  0  0
   16.3890   -3.4150   10.2160 C   0  0  0  0  0  0  0  0  0  0  0  0
   16.4190   -4.6710   11.0150 C   0  0  0  0  0  0  0  0  0  0  0  0
   17.5970   -4.7630   11.7670 O   0  0  0  0  0  0  0  0  0  0  0  0
   17.8520   -3.6440   12.5810 C   0  0  0  0  0  0  0  0  0  0  0  0
   16.9660   -3.6660   13.7940 C   0  0  0  0  0  0  0  0  0  0  0  0
   17.0230   -2.3840   14.4490 N   0  0  0  0  0  0  0  0  0  0  0  0
   17.6910   -2.3430   11.8520 C   0  0  0  0  0  0  0  0  0  0  0  0
  1  2  1  0
  2  3  1  0
  3  4  1  0
  4  5  2  0
  4  6  1  0
  6  7  2  0
  7  8  1  0
  8  9  2  0
  9 10  1  0
 10 11  1  0
 11 12  2  0
 12 13  1  0
 13 14  2  0
 14 15  1  0
 15 16  2  0
 16 17  1  0
 17 18  1  0
 18 19  3  0
 13 20  1  0
 17 20  2  0
  9 21  1  0
 12 21  1  0
  6 22  1  0
 21 22  2  0
 22 23  1  0
 23 24  1  0
 24 25  1  0
 25 26  1  0
 26 27  1  0
 27 28  1  0
 28 29  1  0
 23 30  1  0
 27 30  1  0
M  END
$$$$
