3K99_PFT_C_901_
     RDKit          3D

 19 21  0  0  0  0  0  0  0  0999 V2000
   15.7783   -4.5649    7.3852 N   0  0  0  0  0  0  0  0  0  0  0  0
   15.8386   -4.2207    8.7847 C   0  0  0  0  0  0  0  0  0  0  0  0
   16.9292   -5.2963    6.7084 C   0  0  0  0  0  0  0  0  0  0  0  0
   14.6387   -4.3092    6.3536 C   0  0  0  0  0  0  0  0  0  0  0  0
   14.6089   -3.4822    9.3360 C   0  0  0  0  0  0  0  0  0  0  0  0
   16.8664   -4.5815    9.3243 O   0  0  0  0  0  0  0  0  0  0  0  0
   16.4332   -5.4745    5.2329 C   0  0  0  0  0  0  0  0  0  0  0  0
   15.1079   -4.8884    5.0757 C   0  0  0  0  0  0  0  0  0  0  0  0
   13.7324   -4.3776   10.0624 C   0  0  0  0  0  0  0  0  0  0  0  0
   14.3536   -2.0787    9.1664 C   0  0  0  0  0  0  0  0  0  0  0  0
   17.0003   -6.0804    4.0527 C   0  0  0  0  0  0  0  0  0  0  0  0
   14.3324   -4.8643    3.8614 C   0  0  0  0  0  0  0  0  0  0  0  0
   12.5150   -4.0116   10.7039 C   0  0  0  0  0  0  0  0  0  0  0  0
   13.9847   -5.7239   10.2217 O   0  0  0  0  0  0  0  0  0  0  0  0
   13.1682   -1.6277    9.7661 C   0  0  0  0  0  0  0  0  0  0  0  0
   16.2336   -6.0762    2.7849 C   0  0  0  0  0  0  0  0  0  0  0  0
   14.9013   -5.4590    2.7203 C   0  0  0  0  0  0  0  0  0  0  0  0
   12.3181   -2.5815   10.4928 C   0  0  0  0  0  0  0  0  0  0  0  0
   11.2216   -2.0768   11.0323 O   0  0  0  0  0  0  0  0  0  0  0  0
  1  2  1  0
  1  3  1  0
  1  4  1  0
  2  5  1  0
  2  6  2  0
  3  7  1  0
  4  8  1  0
  7  8  2  0
  5  9  2  0
  5 10  1  0
  7 11  1  0
  8 12  1  0
  9 13  1  0
  9 14  1  0
 10 15  2  0
 11 16  2  0
 12 17  2  0
 16 17  1  0
 13 18  2  0
 15 18  1  0
 18 19  1  0
M  END
$$$$
