4E6Q_0NV_B_1201_
     RDKit          3D

 25 29  0  0  0  0  0  0  0  0999 V2000
    2.6220   48.2540   26.0480 C   0  0  0  0  0  0  0  0  0  0  0  0
    2.5020   49.6770   26.6270 C   0  0  0  0  0  0  0  0  0  0  0  0
    3.4030   49.8330   27.8040 N   0  0  0  0  0  0  0  0  0  0  0  0
    4.8230   49.6600   27.4340 C   0  0  0  0  0  0  0  0  0  0  0  0
    5.0410   48.3040   26.7400 C   0  0  0  0  0  0  0  0  0  0  0  0
    4.0610   48.1770   25.5590 C   0  0  0  0  0  0  0  0  0  0  0  0
    4.3700   46.9230   24.8730 N   0  0  0  0  0  0  0  0  0  0  0  0
    4.6140   45.6880   25.4550 C   0  0  0  0  0  0  0  0  0  0  0  0
    4.9110   44.8120   24.5010 N   0  0  0  0  0  0  0  0  0  0  0  0
    4.8400   45.4210   23.2700 C   0  0  0  0  0  0  0  0  0  0  0  0
    5.0390   45.0030   21.9240 C   0  0  0  0  0  0  0  0  0  0  0  0
    4.9260   45.8250   20.8890 N   0  0  0  0  0  0  0  0  0  0  0  0
    4.5620   47.1280   21.0700 C   0  0  0  0  0  0  0  0  0  0  0  0
    4.3700   48.1570   20.2230 N   0  0  0  0  0  0  0  0  0  0  0  0
    4.0250   49.2970   20.9110 C   0  0  0  0  0  0  0  0  0  0  0  0
    3.9760   49.0610   22.2410 C   0  0  0  0  0  0  0  0  0  0  0  0
    4.3350   47.6380   22.3830 C   0  0  0  0  0  0  0  0  0  0  0  0
    4.4760   46.7870   23.5060 C   0  0  0  0  0  0  0  0  0  0  0  0
    3.2780   51.2020   28.3350 C   0  0  0  0  0  0  0  0  0  0  0  0
    1.8410   51.5850   28.6710 C   0  0  0  0  0  0  0  0  0  0  0  0
    1.0440   52.2830   27.7470 C   0  0  0  0  0  0  0  0  0  0  0  0
   -0.2470   52.6470   28.0400 C   0  0  0  0  0  0  0  0  0  0  0  0
   -0.7130   52.3150   29.2870 C   0  0  0  0  0  0  0  0  0  0  0  0
    0.0650   51.6340   30.2290 C   0  0  0  0  0  0  0  0  0  0  0  0
    1.3600   51.2570   29.9390 C   0  0  0  0  0  0  0  0  0  0  0  0
  1  2  1  0
  2  3  1  0
  3  4  1  0
  4  5  1  0
  1  6  1  0
  5  6  1  0
  6  7  1  0
  7  8  1  0
  8  9  2  0
  9 10  1  0
 10 11  2  0
 11 12  1  0
 12 13  2  0
 13 14  1  0
 14 15  1  0
 15 16  2  0
 13 17  1  0
 16 17  1  0
 17 18  2  0
 10 18  1  0
  7 18  1  0
  3 19  1  0
 19 20  1  0
 20 21  2  0
 21 22  1  0
 22 23  2  0
 23 24  1  0
 20 25  1  0
 24 25  2  0
M  END
$$$$
