4E49_RCO_A_304_
     RDKit          3D

  8  8  0  0  0  0  0  0  0  0999 V2000
   -6.8912    6.8071    8.4853 C   0  0  0  0  0  0  0  0  0  0  0  0
   -6.0951    6.4663    9.6077 C   0  0  0  0  0  0  0  0  0  0  0  0
   -6.1800    7.2073   10.7728 C   0  0  0  0  0  0  0  0  0  0  0  0
   -6.9898    8.3127   10.8186 C   0  0  0  0  0  0  0  0  0  0  0  0
   -7.7162    8.6041    9.6834 C   0  0  0  0  0  0  0  0  0  0  0  0
   -7.7515    7.9679    8.4610 C   0  0  0  0  0  0  0  0  0  0  0  0
   -6.7877    6.0120    7.3152 O   0  0  0  0  0  0  0  0  0  0  0  0
   -5.4889    6.8382   11.8479 O   0  0  0  0  0  0  0  0  0  0  0  0
  1  2  2  0
  2  3  1  0
  3  4  2  0
  4  5  1  0
  1  6  1  0
  5  6  2  0
  1  7  1  0
  3  8  1  0
M  END
$$$$
