3F8E_TE1_A_300_
     RDKit          3D

 20 20  0  0  0  0  0  0  0  0999 V2000
   -2.6550    3.5030   10.9140 C   0  0  0  0  0  0  0  0  0  0  0  0
   -5.9780    5.2100    9.0840 O   0  0  0  0  0  0  0  0  0  0  0  0
   -6.8020    6.8200   12.8680 O   0  0  0  0  0  0  0  0  0  0  0  0
   -7.5360    7.3980   13.8050 C   0  0  0  0  0  0  0  0  0  0  0  0
   -4.6420    2.0210   10.4280 C   0  0  0  0  0  0  0  0  0  0  0  0
   -4.1430    3.4800   10.3940 C   0  0  0  0  0  0  0  0  0  0  0  0
   -5.0700    4.4540   11.1960 C   0  0  0  0  0  0  0  0  0  0  0  0
   -6.2140    5.2550   10.3980 C   0  0  0  0  0  0  0  0  0  0  0  0
   -6.3380    6.7720   10.5380 C   0  0  0  0  0  0  0  0  0  0  0  0
   -6.6340    7.4680   11.7070 C   0  0  0  0  0  0  0  0  0  0  0  0
   -6.7060    8.8200   11.6420 C   0  0  0  0  0  0  0  0  0  0  0  0
   -5.1410    6.8110    6.7520 O   0  0  0  0  0  0  0  0  0  0  0  0
   -4.9770    7.9510    5.0480 O   0  0  0  0  0  0  0  0  0  0  0  0
   -5.2610    7.9100    6.2090 C   0  0  0  0  0  0  0  0  0  0  0  0
   -6.1350    7.4850    9.3790 C   0  0  0  0  0  0  0  0  0  0  0  0
   -6.1860    8.8520    9.3200 C   0  0  0  0  0  0  0  0  0  0  0  0
   -6.4820    9.4830   10.4670 C   0  0  0  0  0  0  0  0  0  0  0  0
   -6.5190   10.8060   10.4090 O   0  0  0  0  0  0  0  0  0  0  0  0
   -5.5020    9.1520    6.8550 C   0  0  0  0  0  0  0  0  0  0  0  0
   -6.0060    9.5860    8.1240 C   0  0  0  0  0  0  0  0  0  0  0  0
  3  4  1  0
  1  6  1  0
  5  6  1  0
  6  7  1  0
  2  8  1  0
  7  8  1  0
  8  9  1  0
  3 10  1  0
  9 10  2  0
 10 11  1  0
 12 14  1  0
 13 14  2  0
  9 15  1  0
 15 16  2  0
 11 17  2  0
 16 17  1  0
 17 18  1  0
 14 19  1  0
 16 20  1  0
 19 20  2  3
M  END
$$$$
