3E64_5B3_A_1_
     RDKit          3D

 24 26  0  0  0  0  0  0  0  0999 V2000
   30.0080   33.3830   38.5690 O   0  0  0  0  0  0  0  0  0  0  0  0
   32.6360   36.3980   37.0060 C   0  0  0  0  0  0  0  0  0  0  0  0
   29.1580   35.0050   40.2630 O   0  0  0  0  0  0  0  0  0  0  0  0
   31.8480   35.4090   37.6030 C   0  0  0  0  0  0  0  0  0  0  0  0
   33.7460   33.6920   41.3140 C   0  0  0  0  0  0  0  0  0  0  0  0
   31.3820   33.9130   40.7950 N   0  0  0  0  0  0  0  0  0  0  0  0
   31.2700   35.6550   38.8510 C   0  0  0  0  0  0  0  0  0  0  0  0
   32.9110   32.5760   39.2990 C   0  0  0  0  0  0  0  0  0  0  0  0
   32.2480   31.6990   41.5400 C   0  0  0  0  0  0  0  0  0  0  0  0
   32.5370   32.9690   40.7350 C   0  0  0  0  0  0  0  0  0  0  0  0
   30.2760   34.3750   39.5910 S   0  0  0  0  0  0  0  0  0  0  0  0
   31.4670   36.8690   39.5250 C   0  0  0  0  0  0  0  0  0  0  0  0
   32.2440   37.8610   38.9180 C   0  0  0  0  0  0  0  0  0  0  0  0
   32.8600   37.6250   37.6630 C   0  0  0  0  0  0  0  0  0  0  0  0
   33.6390   38.6620   36.9790 C   0  0  0  0  0  0  0  0  0  0  0  0
   33.0980   39.9660   37.0080 C   0  0  0  0  0  0  0  0  0  0  0  0
   33.7580   41.0150   36.3330 C   0  0  0  0  0  0  0  0  0  0  0  0
   33.5390   42.4050   36.1310 C   0  0  0  0  0  0  0  0  0  0  0  0
   32.4560   43.0880   36.5580 N   0  0  0  0  0  0  0  0  0  0  0  0
   34.5070   42.9430   35.3840 N   0  0  0  0  0  0  0  0  0  0  0  0
   35.3360   41.9210   35.1090 N   0  0  0  0  0  0  0  0  0  0  0  0
   34.9420   40.7200   35.6530 C   0  0  0  0  0  0  0  0  0  0  0  0
   35.5060   39.4370   35.5790 C   0  0  0  0  0  0  0  0  0  0  0  0
   34.8290   38.4080   36.2580 C   0  0  0  0  0  0  0  0  0  0  0  0
  2  4  2  0
  4  7  1  0
  5 10  1  0
  6 10  1  0
  8 10  1  0
  9 10  1  0
  1 11  2  0
  3 11  2  0
  6 11  1  0
  7 11  1  0
  7 12  2  0
 12 13  1  0
  2 14  1  0
 13 14  2  0
 14 15  1  0
 15 16  2  0
 16 17  1  0
 17 18  1  0
 18 19  1  0
 18 20  2  0
 20 21  1  0
 17 22  2  0
 21 22  1  0
 22 23  1  0
 15 24  1  0
 23 24  2  0
M  END
$$$$
