3E63_5B2_A_1_
     RDKit          3D

 16 18  0  0  0  0  0  0  0  0999 V2000
   33.7178   40.9634   36.3788 C   0  0  0  0  0  0  0  0  0  0  0  0
   33.0360   39.9207   37.0427 C   0  0  0  0  0  0  0  0  0  0  0  0
   33.5081   42.3514   36.1699 C   0  0  0  0  0  0  0  0  0  0  0  0
   32.4545   43.0446   36.6327 N   0  0  0  0  0  0  0  0  0  0  0  0
   33.5679   38.6128   37.0312 C   0  0  0  0  0  0  0  0  0  0  0  0
   34.7877   38.3795   36.3537 C   0  0  0  0  0  0  0  0  0  0  0  0
   35.4913   39.4011   35.6828 C   0  0  0  0  0  0  0  0  0  0  0  0
   34.9174   40.6803   35.7244 C   0  0  0  0  0  0  0  0  0  0  0  0
   35.3162   41.8786   35.1868 N   0  0  0  0  0  0  0  0  0  0  0  0
   34.4751   42.8985   35.4431 N   0  0  0  0  0  0  0  0  0  0  0  0
   32.8430   37.5343   37.7301 C   0  0  0  0  0  0  0  0  0  0  0  0
   32.2270   37.7738   38.9848 C   0  0  0  0  0  0  0  0  0  0  0  0
   31.5355   36.7652   39.6667 C   0  0  0  0  0  0  0  0  0  0  0  0
   31.4317   35.4962   39.0919 C   0  0  0  0  0  0  0  0  0  0  0  0
   32.0226   35.2339   37.8553 C   0  0  0  0  0  0  0  0  0  0  0  0
   32.7262   36.2435   37.1705 C   0  0  0  0  0  0  0  0  0  0  0  0
  1  2  2  0
  1  3  1  0
  3  4  1  0
  2  5  1  0
  5  6  2  0
  6  7  1  0
  1  8  1  0
  7  8  2  0
  8  9  1  0
  3 10  2  0
  9 10  1  0
  5 11  1  0
 11 12  2  0
 12 13  1  0
 13 14  2  0
 14 15  1  0
 11 16  1  0
 15 16  2  0
M  END
$$$$
