3BG8_G0R_A_612_A
     RDKit          3D

 11 10  0  0  0  0  0  0  0  0999 V2000
   11.1914   48.2330   18.4307 C   0  0  0  0  0  0  0  0  0  0  0  0
   10.8899   46.9216   18.7210 N   0  0  0  0  0  0  0  0  0  0  0  0
   11.4797   50.9777   25.0621 C   0  0  0  0  0  0  0  0  0  0  0  0
   11.7057   51.9111   22.8247 C   0  0  0  0  0  0  0  0  0  0  0  0
   11.1534   50.7715   21.9606 C   0  0  0  0  0  0  0  0  0  0  0  0
   12.3056   49.8091   21.6533 C   0  0  0  0  0  0  0  0  0  0  0  0
   11.8575   48.6419   20.7718 C   0  0  0  0  0  0  0  0  0  0  0  0
   12.2945   51.3938   24.0645 N   0  0  0  0  0  0  0  0  0  0  0  0
   11.7476   49.0745   19.3770 N   0  0  0  0  0  0  0  0  0  0  0  0
   10.9321   48.6790   17.2358 N   0  0  0  0  0  0  0  0  0  0  0  0
   10.2762   51.0180   24.9562 O   0  0  0  0  0  0  0  0  0  0  0  0
  1  2  2  0
  4  5  1  0
  5  6  1  0
  6  7  1  0
  4  8  1  0
  3  8  1  0
  1  9  1  0
  7  9  1  0
  1 10  1  0
  3 11  2  0
M  END
$$$$
