1S39_AQO_A_900_
     RDKit          3D

 12 13  0  0  0  0  0  0  0  0999 V2000
   18.3848   17.0165   19.2679 C   0  0  0  0  0  0  0  0  0  0  0  0
   17.0783   16.5941   18.8754 C   0  0  0  0  0  0  0  0  0  0  0  0
   16.0541   16.4339   19.8402 C   0  0  0  0  0  0  0  0  0  0  0  0
   16.3079   16.6932   21.2271 C   0  0  0  0  0  0  0  0  0  0  0  0
   15.2772   16.5311   22.1609 N   0  0  0  0  0  0  0  0  0  0  0  0
   15.4854   16.7631   23.4380 C   0  0  0  0  0  0  0  0  0  0  0  0
   14.4813   16.6137   24.4002 N   0  0  0  0  0  0  0  0  0  0  0  0
   16.7733   17.1943   23.9443 N   0  0  0  0  0  0  0  0  0  0  0  0
   17.8948   17.3866   23.0430 C   0  0  0  0  0  0  0  0  0  0  0  0
   18.9867   17.7564   23.5101 O   0  0  0  0  0  0  0  0  0  0  0  0
   17.6335   17.1204   21.6200 C   0  0  0  0  0  0  0  0  0  0  0  0
   18.6570   17.2768   20.6311 C   0  0  0  0  0  0  0  0  0  0  0  0
  1  2  2  0
  2  3  1  0
  3  4  2  0
  4  5  1  0
  5  6  2  0
  6  7  1  0
  6  8  1  0
  8  9  1  0
  9 10  2  0
  4 11  1  0
  9 11  1  0
  1 12  1  0
 11 12  2  0
M  END
$$$$
