3JPV_1DR_A_313_
     RDKit          3D

 18 21  0  0  0  0  0  0  0  0999 V2000
  -20.4532   38.2896   -1.6224 C   0  0  0  0  0  0  0  0  0  0  0  0
  -21.3271   39.2043   -2.1976 C   0  0  0  0  0  0  0  0  0  0  0  0
  -22.0328   40.0561   -1.3514 C   0  0  0  0  0  0  0  0  0  0  0  0
  -21.8592   39.9842    0.0440 C   0  0  0  0  0  0  0  0  0  0  0  0
  -20.9860   39.0745    0.6281 C   0  0  0  0  0  0  0  0  0  0  0  0
  -20.3026   38.2240   -0.2230 C   0  0  0  0  0  0  0  0  0  0  0  0
  -19.3688   37.2351    0.0506 C   0  0  0  0  0  0  0  0  0  0  0  0
  -18.9766   36.7235   -1.1895 C   0  0  0  0  0  0  0  0  0  0  0  0
  -19.6306   37.3878   -2.1813 N   0  0  0  0  0  0  0  0  0  0  0  0
  -18.8258   36.7747    1.2372 C   0  0  0  0  0  0  0  0  0  0  0  0
  -17.8782   35.7438    1.1921 C   0  0  0  0  0  0  0  0  0  0  0  0
  -17.4965   35.2300   -0.0500 C   0  0  0  0  0  0  0  0  0  0  0  0
  -18.0443   35.7082   -1.2327 C   0  0  0  0  0  0  0  0  0  0  0  0
  -16.5989   34.2506   -0.4604 C   0  0  0  0  0  0  0  0  0  0  0  0
  -16.5975   34.1331   -1.7928 C   0  0  0  0  0  0  0  0  0  0  0  0
  -17.4866   35.0399   -2.2559 N   0  0  0  0  0  0  0  0  0  0  0  0
  -15.7645   33.4162    0.5053 C   0  0  0  0  0  0  0  0  0  0  0  0
  -15.8114   33.6752    1.7078 O   0  0  0  0  0  0  0  0  0  0  0  0
  1  2  2  0
  2  3  1  0
  3  4  2  0
  4  5  1  0
  1  6  1  0
  5  6  2  0
  6  7  1  0
  7  8  2  0
  1  9  1  0
  8  9  1  0
  7 10  1  0
 10 11  2  0
 11 12  1  0
  8 13  1  0
 12 13  2  0
 12 14  1  0
 14 15  2  0
 13 16  1  0
 15 16  1  0
 14 17  1  0
 17 18  2  0
M  END
$$$$
