3PX8_JP2_X_1_
     RDKit          3D

 15 16  0  0  0  0  0  0  0  0999 V2000
   23.8421   -8.9450   -6.4669 C   0  0  0  0  0  0  0  0  0  0  0  0
   24.2513   -8.2520   -5.3886 N   0  0  0  0  0  0  0  0  0  0  0  0
   22.0073   -8.5412   -9.3586 O   0  0  0  0  0  0  0  0  0  0  0  0
   22.7402   -9.0533   -8.4357 C   0  0  0  0  0  0  0  0  0  0  0  0
   23.0897   -8.3227   -7.3923 N   0  0  0  0  0  0  0  0  0  0  0  0
   25.6195  -14.6380   -8.1917 O   0  0  0  0  0  0  0  0  0  0  0  0
   23.1715  -10.4088   -8.6751 C   0  0  0  0  0  0  0  0  0  0  0  0
   24.2748  -10.2232   -6.5672 N   0  0  0  0  0  0  0  0  0  0  0  0
   24.7183  -14.8347  -10.1807 O   0  0  0  0  0  0  0  0  0  0  0  0
   23.9883  -11.0079   -7.6625 C   0  0  0  0  0  0  0  0  0  0  0  0
   24.5383  -12.2275   -7.7627 N   0  0  0  0  0  0  0  0  0  0  0  0
   24.2823  -12.9048   -8.9351 C   0  0  0  0  0  0  0  0  0  0  0  0
   22.7907  -11.1711   -9.7747 N   0  0  0  0  0  0  0  0  0  0  0  0
   23.3529  -12.3784   -9.9347 C   0  0  0  0  0  0  0  0  0  0  0  0
   24.8671  -14.2098   -9.1219 C   0  0  0  0  0  0  0  0  0  0  0  0
  1  2  1  0
  3  4  2  0
  1  5  2  0
  4  5  1  0
  4  7  1  0
  1  8  1  0
  7 10  2  0
  8 10  1  0
 10 11  1  0
 11 12  2  0
  7 13  1  0
 12 14  1  0
 13 14  2  0
  6 15  1  0
  9 15  2  0
 12 15  1  0
M  END
$$$$
