3KGP_4AZ_A_4069_
     RDKit          3D

 11 11  0  0  0  0  0  0  0  0999 V2000
    8.1646   -6.2560   17.1238 C   0  0  0  0  0  0  0  0  0  0  0  0
    8.3284   -5.1033   16.8735 O   0  0  0  0  0  0  0  0  0  0  0  0
    8.8677   -6.9612   18.0032 C   0  0  0  0  0  0  0  0  0  0  0  0
   10.4074  -10.1202   21.6382 N   0  0  0  0  0  0  0  0  0  0  0  0
    9.9307   -6.3078   18.7217 C   0  0  0  0  0  0  0  0  0  0  0  0
   10.6960   -7.0227   19.6594 C   0  0  0  0  0  0  0  0  0  0  0  0
   10.4239   -8.3864   19.8983 C   0  0  0  0  0  0  0  0  0  0  0  0
    9.3847   -9.0308   19.1959 C   0  0  0  0  0  0  0  0  0  0  0  0
    8.6138   -8.3287   18.2570 C   0  0  0  0  0  0  0  0  0  0  0  0
   11.2491   -9.1557   20.9037 C   0  0  0  0  0  0  0  0  0  0  0  0
    7.1830   -6.5504   16.3741 O   0  0  0  0  0  0  0  0  0  0  0  0
  1  2  1  0
  1  3  1  0
  3  5  2  0
  5  6  1  0
  6  7  2  0
  7  8  1  0
  3  9  1  0
  8  9  2  0
  4 10  1  0
  7 10  1  0
  1 11  2  0
M  END
$$$$
