3HVC_GG5_A_361_
     RDKit          3D

 18 20  0  0  0  0  0  0  0  0999 V2000
    0.0959  -33.6484  -31.9825 C   0  0  0  0  0  0  0  0  0  0  0  0
    0.7383  -34.4774  -31.0789 N   0  0  0  0  0  0  0  0  0  0  0  0
    1.7020  -33.9333  -30.2412 C   0  0  0  0  0  0  0  0  0  0  0  0
    2.0641  -32.4575  -30.2911 C   0  0  0  0  0  0  0  0  0  0  0  0
    1.3659  -31.6150  -31.2570 C   0  0  0  0  0  0  0  0  0  0  0  0
    0.3644  -32.2470  -32.1098 C   0  0  0  0  0  0  0  0  0  0  0  0
    1.6748  -30.1381  -31.3647 C   0  0  0  0  0  0  0  0  0  0  0  0
    0.6851  -29.1517  -31.4681 C   0  0  0  0  0  0  0  0  0  0  0  0
    1.3254  -27.9777  -31.5443 N   0  0  0  0  0  0  0  0  0  0  0  0
    2.6566  -28.1211  -31.4987 N   0  0  0  0  0  0  0  0  0  0  0  0
    2.9173  -29.4139  -31.3897 C   0  0  0  0  0  0  0  0  0  0  0  0
    4.3659  -29.9218  -31.3055 C   0  0  0  0  0  0  0  0  0  0  0  0
    5.2311  -29.3580  -30.3042 C   0  0  0  0  0  0  0  0  0  0  0  0
    6.5821  -29.7980  -30.1685 C   0  0  0  0  0  0  0  0  0  0  0  0
    7.0877  -30.8207  -31.0457 C   0  0  0  0  0  0  0  0  0  0  0  0
    6.2539  -31.3927  -32.0494 C   0  0  0  0  0  0  0  0  0  0  0  0
    4.9012  -30.9510  -32.1830 C   0  0  0  0  0  0  0  0  0  0  0  0
    8.3335  -31.2291  -30.9092 F   0  0  0  0  0  0  0  0  0  0  0  0
  1  2  2  0
  2  3  1  0
  3  4  2  0
  4  5  1  0
  1  6  1  0
  5  6  2  0
  5  7  1  0
  7  8  2  0
  8  9  1  0
  9 10  1  0
  7 11  1  0
 10 11  2  0
 11 12  1  0
 12 13  2  0
 13 14  1  0
 14 15  2  0
 15 16  1  0
 12 17  1  0
 16 17  2  0
 15 18  1  0
M  END
$$$$
