3U8W_09J_A_500_
     RDKit          3D

 33 37  0  0  0  0  0  0  0  0999 V2000
    7.7050  -25.2730  -25.8720 C   0  0  0  0  0  0  0  0  0  0  0  0
    6.5200  -25.8870  -25.1300 C   0  0  0  0  0  0  0  0  0  0  0  0
    6.3280  -25.3300  -26.5450 C   0  0  0  0  0  0  0  0  0  0  0  0
    6.1540  -26.3110  -27.6450 N   0  0  0  0  0  0  0  0  0  0  0  0
    5.1370  -27.1850  -27.7210 C   0  0  0  0  0  0  0  0  0  0  0  0
    4.2480  -27.2820  -26.8780 O   0  0  0  0  0  0  0  0  0  0  0  0
    5.1110  -28.1080  -28.9590 C   0  0  0  0  0  0  0  0  0  0  0  0
    3.9240  -28.7730  -29.2710 C   0  0  0  0  0  0  0  0  0  0  0  0
    6.2260  -28.2920  -29.7800 C   0  0  0  0  0  0  0  0  0  0  0  0
    6.1420  -29.1360  -30.8900 C   0  0  0  0  0  0  0  0  0  0  0  0
    4.9500  -29.8000  -31.1960 C   0  0  0  0  0  0  0  0  0  0  0  0
    4.9240  -30.7060  -32.4300 C   0  0  0  0  0  0  0  0  0  0  0  0
    3.8220  -29.6210  -30.3770 C   0  0  0  0  0  0  0  0  0  0  0  0
    2.5700  -30.2300  -30.5780 C   0  0  0  0  0  0  0  0  0  0  0  0
    2.2640  -31.4420  -29.9660 C   0  0  0  0  0  0  0  0  0  0  0  0
    1.5720  -29.6230  -31.3480 C   0  0  0  0  0  0  0  0  0  0  0  0
    1.8110  -28.5430  -31.8930 O   0  0  0  0  0  0  0  0  0  0  0  0
    0.2910  -30.2580  -31.5150 N   0  0  0  0  0  0  0  0  0  0  0  0
   -0.7270  -29.5650  -32.3570 C   0  0  0  0  0  0  0  0  0  0  0  0
   -0.5780  -29.9310  -33.8380 C   0  0  0  0  0  0  0  0  0  0  0  0
    0.0330  -31.3510  -30.9630 N   0  0  0  0  0  0  0  0  0  0  0  0
    0.9990  -32.0000  -30.1670 C   0  0  0  0  0  0  0  0  0  0  0  0
    0.4540  -33.1340  -29.7200 N   0  0  0  0  0  0  0  0  0  0  0  0
   -0.7020  -33.2690  -30.1310 N   0  0  0  0  0  0  0  0  0  0  0  0
   -1.0690  -32.2430  -30.8930 C   0  0  0  0  0  0  0  0  0  0  0  0
   -2.3270  -32.1000  -31.5010 C   0  0  0  0  0  0  0  0  0  0  0  0
   -3.3680  -31.4210  -30.8510 C   0  0  0  0  0  0  0  0  0  0  0  0
   -3.1410  -30.7060  -29.2930 Cl  0  0  0  0  0  0  0  0  0  0  0  0
   -4.6190  -31.2880  -31.4600 C   0  0  0  0  0  0  0  0  0  0  0  0
   -4.8510  -31.8420  -32.7150 C   0  0  0  0  0  0  0  0  0  0  0  0
   -3.8240  -32.5250  -33.3630 C   0  0  0  0  0  0  0  0  0  0  0  0
   -2.5760  -32.6570  -32.7550 C   0  0  0  0  0  0  0  0  0  0  0  0
   -1.5960  -33.3120  -33.3940 F   0  0  0  0  0  0  0  0  0  0  0  0
  1  2  1  0
  1  3  1  0
  2  3  1  0
  3  4  1  0
  4  5  1  0
  5  6  2  0
  5  7  1  0
  7  8  2  0
  7  9  1  0
  9 10  2  0
 10 11  1  0
 11 12  1  0
 11 13  2  0
  8 13  1  0
 13 14  1  0
 14 15  2  0
 14 16  1  0
 16 17  2  0
 16 18  1  0
 18 19  1  0
 19 20  1  0
 18 21  1  0
 21 22  1  0
 15 22  1  0
 22 23  2  0
 23 24  1  0
 21 25  1  0
 24 25  2  0
 25 26  1  0
 26 27  2  0
 27 28  1  0
 27 29  1  0
 29 30  2  0
 30 31  1  0
 31 32  2  0
 26 32  1  0
 32 33  1  0
M  END
$$$$
