3I6M_G3X_A_1_
     RDKit          3D

 29 33  0  0  0  0  0  0  0  0999 V2000
    2.4783   67.7200   63.3974 C   0  0  0  0  0  0  0  0  0  0  0  0
    2.6305   68.1641   62.1129 C   0  0  0  0  0  0  0  0  0  0  0  0
    3.9961   68.2175   61.4343 C   0  0  0  0  0  0  0  0  0  0  0  0
    5.0761   68.5005   62.5065 C   0  0  0  0  0  0  0  0  0  0  0  0
    5.3394   66.0954   63.0749 O   0  0  0  0  0  0  0  0  0  0  0  0
    4.6715   63.7989   63.8757 C   0  0  0  0  0  0  0  0  0  0  0  0
    3.7339   63.0903   64.6737 C   0  0  0  0  0  0  0  0  0  0  0  0
    2.7064   63.7860   65.3522 C   0  0  0  0  0  0  0  0  0  0  0  0
    1.3961   65.8845   65.9465 C   0  0  0  0  0  0  0  0  0  0  0  0
    1.7985   66.9607   66.9169 N   0  0  0  0  0  0  0  0  0  0  0  0
    2.2967   68.2408   66.3065 C   0  0  0  0  0  0  0  0  0  0  0  0
    3.6722   68.1313   65.6256 C   0  0  0  0  0  0  0  0  0  0  0  0
    4.5657   65.2050   63.7643 C   0  0  0  0  0  0  0  0  0  0  0  0
    3.5496   65.8667   64.4508 C   0  0  0  0  0  0  0  0  0  0  0  0
    2.5975   65.1930   65.2488 C   0  0  0  0  0  0  0  0  0  0  0  0
    5.4594   61.7799   62.8892 C   0  0  0  0  0  0  0  0  0  0  0  0
    5.7255   63.1555   63.2303 O   0  0  0  0  0  0  0  0  0  0  0  0
    4.2173   66.9573   60.7678 O   0  0  0  0  0  0  0  0  0  0  0  0
    0.7051   67.2560   67.8747 C   0  0  0  0  0  0  0  0  0  0  0  0
    0.5589   66.2083   68.9821 C   0  0  0  0  0  0  0  0  0  0  0  0
    1.7693   66.1950   69.9116 C   0  0  0  0  0  0  0  0  0  0  0  0
    2.9238   65.5858   69.2341 N   0  0  0  0  0  0  0  0  0  0  0  0
    3.1052   64.1513   69.5783 C   0  0  0  0  0  0  0  0  0  0  0  0
    4.1734   63.5435   68.6619 C   0  0  0  0  0  0  0  0  0  0  0  0
    5.4709   64.3628   68.7537 C   0  0  0  0  0  0  0  0  0  0  0  0
    5.2150   65.8295   68.3886 C   0  0  0  0  0  0  0  0  0  0  0  0
    4.1450   66.4212   69.3080 C   0  0  0  0  0  0  0  0  0  0  0  0
    5.0454   67.4160   63.6506 C   0  0  0  0  0  0  0  0  0  0  0  0
    3.6261   67.2539   64.3611 C   0  0  0  0  0  0  0  0  0  0  0  0
  1  2  2  0
  2  3  1  0
  3  4  1  0
  6  7  1  0
  7  8  2  0
  9 10  1  0
 10 11  1  0
 11 12  1  0
  5 13  1  0
  6 13  2  0
 13 14  1  0
  8 15  1  0
  9 15  1  0
 14 15  2  0
  6 17  1  0
 16 17  1  0
  3 18  1  0
 10 19  1  0
 19 20  1  0
 20 21  1  0
 21 22  1  0
 22 23  1  0
 23 24  1  0
 24 25  1  0
 25 26  1  0
 22 27  1  0
 26 27  1  0
  4 28  1  0
  5 28  1  0
  1 29  1  0
 12 29  1  0
 14 29  1  0
 28 29  1  0
M  END
$$$$
