2VTS_LZC_A_1299_
     RDKit          3D

 23 25  0  0  0  0  0  0  0  0999 V2000
    4.8025   63.3307    4.7064 C   0  0  0  0  0  0  0  0  0  0  0  0
    4.1055   63.2799    6.0665 C   0  0  0  0  0  0  0  0  0  0  0  0
    5.0978   63.3622    7.2269 C   0  0  0  0  0  0  0  0  0  0  0  0
    3.1400   64.3617    6.1762 N   0  0  0  0  0  0  0  0  0  0  0  0
    2.0509   64.3033    7.0340 C   0  0  0  0  0  0  0  0  0  0  0  0
    1.6354   63.1599    7.7016 C   0  0  0  0  0  0  0  0  0  0  0  0
    0.5344   63.2502    8.5440 C   0  0  0  0  0  0  0  0  0  0  0  0
    0.0566   62.1735    9.2507 N   0  0  0  0  0  0  0  0  0  0  0  0
   -0.9089   62.2968   10.3292 C   0  0  0  0  0  0  0  0  0  0  0  0
   -1.4119   60.9086   10.7273 C   0  0  0  0  0  0  0  0  0  0  0  0
   -2.3553   60.9662   11.9093 C   0  0  0  0  0  0  0  0  0  0  0  0
   -1.6339   61.5696   13.0936 C   0  0  0  0  0  0  0  0  0  0  0  0
   -2.5343   61.5619   14.2967 N   0  0  0  0  0  0  0  0  0  0  0  0
   -1.1583   62.9923   12.7815 C   0  0  0  0  0  0  0  0  0  0  0  0
   -0.2809   63.0332   11.5284 C   0  0  0  0  0  0  0  0  0  0  0  0
   -0.1620   64.3938    8.7149 N   0  0  0  0  0  0  0  0  0  0  0  0
    0.2524   65.4875    8.0738 C   0  0  0  0  0  0  0  0  0  0  0  0
   -0.1908   66.7824    8.0711 C   0  0  0  0  0  0  0  0  0  0  0  0
   -1.3068   67.2624    8.7978 C   0  0  0  0  0  0  0  0  0  0  0  0
   -2.2122   67.6487    9.3958 N   0  0  0  0  0  0  0  0  0  0  0  0
    0.6404   67.4846    7.1939 C   0  0  0  0  0  0  0  0  0  0  0  0
    1.5675   66.6772    6.6598 N   0  0  0  0  0  0  0  0  0  0  0  0
    1.3247   65.4518    7.2262 N   0  0  0  0  0  0  0  0  0  0  0  0
  1  2  1  0
  2  3  1  0
  2  4  1  0
  4  5  1  0
  5  6  2  0
  6  7  1  0
  7  8  1  0
  8  9  1  0
  9 10  1  0
 10 11  1  0
 11 12  1  0
 12 13  1  0
 12 14  1  0
  9 15  1  0
 14 15  1  0
  7 16  2  0
 16 17  1  0
 17 18  2  0
 18 19  1  0
 19 20  3  0
 18 21  1  0
 21 22  2  0
  5 23  1  0
 17 23  1  0
 22 23  1  0
M  END
$$$$
