3QCX_3Q2_A_370_
     RDKit          3D

 24 27  0  0  0  0  0  0  0  0999 V2000
  -40.7155   16.5712   12.9461 C   0  0  0  0  0  0  0  0  0  0  0  0
  -41.9123   17.1941   12.6189 C   0  0  0  0  0  0  0  0  0  0  0  0
  -42.9188   15.1634   11.8804 C   0  0  0  0  0  0  0  0  0  0  0  0
  -44.4061   18.5467   11.8932 C   0  0  0  0  0  0  0  0  0  0  0  0
  -40.6271   15.1943   12.7298 C   0  0  0  0  0  0  0  0  0  0  0  0
  -42.9989   16.5224   12.0826 C   0  0  0  0  0  0  0  0  0  0  0  0
  -41.7391   14.5462   12.2205 C   0  0  0  0  0  0  0  0  0  0  0  0
  -44.2222   17.2050   11.6754 C   0  0  0  0  0  0  0  0  0  0  0  0
  -45.5820   19.1249   11.4651 C   0  0  0  0  0  0  0  0  0  0  0  0
  -39.6514   14.1535   12.9000 C   0  0  0  0  0  0  0  0  0  0  0  0
  -46.2875   17.1180   10.6637 C   0  0  0  0  0  0  0  0  0  0  0  0
  -47.1435   20.9641   11.7191 C   0  0  0  0  0  0  0  0  0  0  0  0
  -47.0767   22.4282   11.3379 C   0  0  0  0  0  0  0  0  0  0  0  0
  -44.8488   22.6153   12.1153 C   0  0  0  0  0  0  0  0  0  0  0  0
  -44.8361   21.1732   12.5707 C   0  0  0  0  0  0  0  0  0  0  0  0
  -45.2965   21.0978   14.0010 C   0  0  0  0  0  0  0  0  0  0  0  0
  -45.1668   16.4811   11.0626 N   0  0  0  0  0  0  0  0  0  0  0  0
  -46.5257   18.4171   10.8353 N   0  0  0  0  0  0  0  0  0  0  0  0
  -40.1349   12.9634   12.5118 N   0  0  0  0  0  0  0  0  0  0  0  0
  -41.3888   13.2266   12.1052 N   0  0  0  0  0  0  0  0  0  0  0  0
  -45.7675   20.5206   11.6480 N   0  0  0  0  0  0  0  0  0  0  0  0
  -38.3875   14.3325   13.4008 N   0  0  0  0  0  0  0  0  0  0  0  0
  -47.2992   16.4153   10.0147 N   0  0  0  0  0  0  0  0  0  0  0  0
  -46.1897   23.1202   12.2185 O   0  0  0  0  0  0  0  0  0  0  0  0
  1  2  2  0
  1  5  1  0
  2  6  1  0
  3  6  2  0
  3  7  1  0
  5  7  1  0
  4  8  2  0
  6  8  1  0
  4  9  1  0
  5 10  2  0
 12 13  1  0
 14 15  1  0
 15 16  1  0
  8 17  1  0
 11 17  2  0
  9 18  2  0
 11 18  1  0
 10 19  1  0
  7 20  2  0
 19 20  1  0
  9 21  1  0
 12 21  1  0
 15 21  1  0
 10 22  1  0
 11 23  1  0
 13 24  1  0
 14 24  1  0
M  END
$$$$
