3UU1_14B_B_404_
     RDKit          3D

 12 12  0  0  0  0  0  0  0  0999 V2000
   31.4941   -6.8271   30.7473 C   0  0  0  0  0  0  0  0  0  0  0  0
   34.7949   -8.3117   27.3136 C   0  0  0  0  0  0  0  0  0  0  0  0
   33.2907   -6.7821   25.4171 N   0  0  0  0  0  0  0  0  0  0  0  0
   29.9405   -4.5527   26.6612 O   0  0  0  0  0  0  0  0  0  0  0  0
   31.1118   -5.1553   24.8608 O   0  0  0  0  0  0  0  0  0  0  0  0
   33.0792   -7.5059   28.9422 C   0  0  0  0  0  0  0  0  0  0  0  0
   31.2373   -6.0579   28.3647 C   0  0  0  0  0  0  0  0  0  0  0  0
   30.8538   -5.1994   26.0919 C   0  0  0  0  0  0  0  0  0  0  0  0
   31.9481   -6.7898   29.3047 C   0  0  0  0  0  0  0  0  0  0  0  0
   33.5372   -7.5032   27.6385 C   0  0  0  0  0  0  0  0  0  0  0  0
   32.8407   -6.7753   26.6730 C   0  0  0  0  0  0  0  0  0  0  0  0
   31.6902   -6.0494   27.0453 C   0  0  0  0  0  0  0  0  0  0  0  0
  4  8  1  0
  5  8  2  0
  1  9  1  0
  6  9  2  0
  7  9  1  0
  2 10  1  0
  6 10  1  0
  3 11  1  0
 10 11  2  0
  7 12  2  0
  8 12  1  0
 11 12  1  0
M  END
$$$$
