2XP7_4F8_A_1164_
     RDKit          3D

 17 18  0  0  0  0  0  0  0  0999 V2000
   38.7056  -14.9655   10.3127 N   0  0  0  0  0  0  0  0  0  0  0  0
   38.9630  -13.7027   10.6737 C   0  0  0  0  0  0  0  0  0  0  0  0
   39.4861  -13.7155   11.9839 C   0  0  0  0  0  0  0  0  0  0  0  0
   39.9575  -12.5275   12.8703 C   0  0  0  0  0  0  0  0  0  0  0  0
   40.4544  -11.5303   12.3474 O   0  0  0  0  0  0  0  0  0  0  0  0
   39.9478  -12.5968   14.1075 O   0  0  0  0  0  0  0  0  0  0  0  0
   39.0183  -17.1625   11.4187 C   0  0  0  0  0  0  0  0  0  0  0  0
   39.2638  -17.9330   10.2708 C   0  0  0  0  0  0  0  0  0  0  0  0
   39.2730  -19.3301   10.3205 C   0  0  0  0  0  0  0  0  0  0  0  0
   39.0712  -19.9890   11.5401 C   0  0  0  0  0  0  0  0  0  0  0  0
   38.8565  -19.2132   12.6789 C   0  0  0  0  0  0  0  0  0  0  0  0
   38.8390  -17.8125   12.6242 C   0  0  0  0  0  0  0  0  0  0  0  0
   39.0535  -15.7644   11.3580 C   0  0  0  0  0  0  0  0  0  0  0  0
   38.6028  -11.3440   10.3160 O   0  0  0  0  0  0  0  0  0  0  0  0
   38.5131  -12.5701    8.5669 O   0  0  0  0  0  0  0  0  0  0  0  0
   39.5575  -14.9948   12.3631 N   0  0  0  0  0  0  0  0  0  0  0  0
   38.6852  -12.4636    9.7936 C   0  0  0  0  0  0  0  0  0  0  0  0
  1  2  1  0
  2  3  2  0
  3  4  1  0
  4  5  2  0
  4  6  1  0
  7  8  2  0
  8  9  1  0
  9 10  2  0
 10 11  1  0
  7 12  1  0
 11 12  2  0
  1 13  2  0
  7 13  1  0
  3 16  1  0
 13 16  1  0
  2 17  1  0
 14 17  2  0
 15 17  1  0
M  END
$$$$
