3TWP_SAL_D_404_
     RDKit          3D

 10 10  0  0  0  0  0  0  0  0999 V2000
    8.5979   -6.2395   28.2074 C   0  0  0  0  0  0  0  0  0  0  0  0
    7.6600   -5.5755   27.6837 O   0  0  0  0  0  0  0  0  0  0  0  0
    8.7730   -6.4463   29.4299 O   0  0  0  0  0  0  0  0  0  0  0  0
    9.6312   -6.8434   27.2845 C   0  0  0  0  0  0  0  0  0  0  0  0
    9.6438   -6.4711   25.9363 C   0  0  0  0  0  0  0  0  0  0  0  0
   10.5984   -7.0483   25.0974 C   0  0  0  0  0  0  0  0  0  0  0  0
   11.5157   -7.9606   25.6326 C   0  0  0  0  0  0  0  0  0  0  0  0
   11.4950   -8.3326   26.9847 C   0  0  0  0  0  0  0  0  0  0  0  0
   10.5393   -7.7674   27.8207 C   0  0  0  0  0  0  0  0  0  0  0  0
    8.7299   -5.5543   25.4425 O   0  0  0  0  0  0  0  0  0  0  0  0
  1  2  2  0
  1  3  1  0
  1  4  1  0
  4  5  2  0
  5  6  1  0
  6  7  2  0
  7  8  1  0
  4  9  1  0
  8  9  2  0
  5 10  1  0
M  END
$$$$
