3KAC_4BX_A_1_
     RDKit          3D

 14 15  0  0  0  0  0  0  0  0999 V2000
  -31.8492   24.1968   26.8924 C   0  0  0  0  0  0  0  0  0  0  0  0
  -31.7686   23.5530   25.6620 C   0  0  0  0  0  0  0  0  0  0  0  0
  -32.7906   23.7003   24.7314 C   0  0  0  0  0  0  0  0  0  0  0  0
  -32.9518   24.9878   27.1922 C   0  0  0  0  0  0  0  0  0  0  0  0
  -35.1162   25.8093   26.2748 N   0  0  0  0  0  0  0  0  0  0  0  0
  -33.9719   25.1334   26.2600 C   0  0  0  0  0  0  0  0  0  0  0  0
  -33.8915   24.4923   25.0339 C   0  0  0  0  0  0  0  0  0  0  0  0
  -34.9893   24.8051   24.3547 N   0  0  0  0  0  0  0  0  0  0  0  0
  -35.7364   25.6085   25.1120 C   0  0  0  0  0  0  0  0  0  0  0  0
  -37.0876   26.2052   24.7113 C   0  0  0  0  0  0  0  0  0  0  0  0
  -37.0043   27.7291   24.6072 C   0  0  0  0  0  0  0  0  0  0  0  0
  -38.3936   28.3622   24.7063 C   0  0  0  0  0  0  0  0  0  0  0  0
  -38.6503   29.1652   25.6010 O   0  0  0  0  0  0  0  0  0  0  0  0
  -39.2683   28.0740   23.8909 O   0  0  0  0  0  0  0  0  0  0  0  0
  1  2  2  0
  2  3  1  0
  1  4  1  0
  4  6  2  0
  5  6  1  0
  3  7  2  0
  6  7  1  0
  7  8  1  0
  5  9  1  0
  8  9  2  0
  9 10  1  0
 10 11  1  0
 11 12  1  0
 12 13  2  0
 12 14  1  0
M  END
$$$$
