2XP4_G14_A_1165_
     RDKit          3D

 14 15  0  0  0  0  0  0  0  0999 V2000
  -38.0821   28.5615   25.3553 O   0  0  0  0  0  0  0  0  0  0  0  0
  -37.2074   27.9912   25.9643 C   0  0  0  0  0  0  0  0  0  0  0  0
  -37.0383   28.2453   27.1752 O   0  0  0  0  0  0  0  0  0  0  0  0
  -36.3433   26.9418   25.1813 C   0  0  0  0  0  0  0  0  0  0  0  0
  -36.6310   26.5094   23.9230 C   0  0  0  0  0  0  0  0  0  0  0  0
  -35.6248   25.6965   23.6211 N   0  0  0  0  0  0  0  0  0  0  0  0
  -34.7224   25.6824   24.6218 C   0  0  0  0  0  0  0  0  0  0  0  0
  -35.1516   26.5105   25.6137 N   0  0  0  0  0  0  0  0  0  0  0  0
  -33.5570   24.9318   24.6111 C   0  0  0  0  0  0  0  0  0  0  0  0
  -32.9707   24.6232   23.3785 C   0  0  0  0  0  0  0  0  0  0  0  0
  -31.8011   23.8313   23.3288 C   0  0  0  0  0  0  0  0  0  0  0  0
  -31.1898   23.4292   24.5373 C   0  0  0  0  0  0  0  0  0  0  0  0
  -31.7576   23.7782   25.7826 C   0  0  0  0  0  0  0  0  0  0  0  0
  -32.9579   24.5241   25.8227 C   0  0  0  0  0  0  0  0  0  0  0  0
  1  2  1  0
  2  3  2  0
  2  4  1  0
  4  5  2  0
  5  6  1  0
  6  7  1  0
  4  8  1  0
  7  8  2  0
  7  9  1  0
  9 10  2  0
 10 11  1  0
 11 12  2  0
 12 13  1  0
  9 14  1  0
 13 14  2  0
M  END
$$$$
