3CTH_319_A_2001_
     RDKit          3D

 29 31  0  0  0  0  0  0  0  0999 V2000
   -0.6442    0.7312   52.0348 C   0  0  0  0  0  0  0  0  0  0  0  0
   -2.7601    1.3116   53.1214 C   0  0  0  0  0  0  0  0  0  0  0  0
    0.0842    7.7954   54.2253 C   0  0  0  0  0  0  0  0  0  0  0  0
    0.1976    9.0277   54.8728 C   0  0  0  0  0  0  0  0  0  0  0  0
   -0.4842   -0.3188   52.9229 C   0  0  0  0  0  0  0  0  0  0  0  0
   -2.5895    0.2569   54.0192 C   0  0  0  0  0  0  0  0  0  0  0  0
   -2.3528   11.2560   55.6579 C   0  0  0  0  0  0  0  0  0  0  0  0
   -0.6519    8.9309   52.2211 C   0  0  0  0  0  0  0  0  0  0  0  0
   -0.7482   12.7267   56.6791 C   0  0  0  0  0  0  0  0  0  0  0  0
   -3.2705   11.7061   56.5910 C   0  0  0  0  0  0  0  0  0  0  0  0
   -1.7849    1.5433   52.1257 C   0  0  0  0  0  0  0  0  0  0  0  0
   -0.3366    7.7484   52.8868 C   0  0  0  0  0  0  0  0  0  0  0  0
   -0.1288   10.2078   54.2027 C   0  0  0  0  0  0  0  0  0  0  0  0
   -1.0608   11.7781   55.7040 C   0  0  0  0  0  0  0  0  0  0  0  0
   -1.4511   -0.5465   53.9012 C   0  0  0  0  0  0  0  0  0  0  0  0
   -0.5550   10.1529   52.8754 C   0  0  0  0  0  0  0  0  0  0  0  0
   -1.7351   13.1377   57.5855 C   0  0  0  0  0  0  0  0  0  0  0  0
   -1.4886    3.9639   51.8061 C   0  0  0  0  0  0  0  0  0  0  0  0
   -1.0349    6.2699   51.0324 C   0  0  0  0  0  0  0  0  0  0  0  0
   -1.9437    2.6734   51.1662 C   0  0  0  0  0  0  0  0  0  0  0  0
   -2.9922   12.6316   57.5448 N   0  0  0  0  0  0  0  0  0  0  0  0
   -1.4103   14.1018   58.5729 N   0  0  0  0  0  0  0  0  0  0  0  0
   -0.4357    6.4916   52.2571 N   0  0  0  0  0  0  0  0  0  0  0  0
   -1.5546    4.9977   50.8833 N   0  0  0  0  0  0  0  0  0  0  0  0
   -0.7943    4.0087   52.8053 O   0  0  0  0  0  0  0  0  0  0  0  0
   -1.1443    7.0676   50.1120 O   0  0  0  0  0  0  0  0  0  0  0  0
   -0.0358   11.4284   54.8342 O   0  0  0  0  0  0  0  0  0  0  0  0
   -1.2755   -1.5648   54.7472 F   0  0  0  0  0  0  0  0  0  0  0  0
   -0.8832   11.2729   52.2002 F   0  0  0  0  0  0  0  0  0  0  0  0
  3  4  2  0
  1  5  2  0
  2  6  1  0
  7 10  2  0
  1 11  1  0
  2 11  2  0
  3 12  1  0
  8 12  2  0
  4 13  1  0
  7 14  1  0
  9 14  2  0
  5 15  1  0
  6 15  2  0
  8 16  1  0
 13 16  2  0
  9 17  1  0
 11 20  1  0
 18 20  1  0
 10 21  1  0
 17 21  2  0
 17 22  1  0
 12 23  1  0
 19 23  1  0
 18 24  1  0
 19 24  1  0
 18 25  2  0
 19 26  2  0
 13 27  1  0
 14 27  1  0
 15 28  1  0
 16 29  1  0
M  END
$$$$
