3CCB_B2Y_D_800_
     RDKit          3D

 14 15  0  0  0  0  0  0  0  0999 V2000
   41.4556   11.3631   17.9574 N   0  0  0  0  0  0  0  0  0  0  0  0
   43.9001    9.2535   17.0797 C   0  0  0  0  0  0  0  0  0  0  0  0
   44.1437    7.9310   16.7281 C   0  0  0  0  0  0  0  0  0  0  0  0
   43.2732    7.2689   15.8726 C   0  0  0  0  0  0  0  0  0  0  0  0
   42.1562    7.9245   15.3646 C   0  0  0  0  0  0  0  0  0  0  0  0
   41.8986    9.2591   15.7133 C   0  0  0  0  0  0  0  0  0  0  0  0
   39.4147    9.4317   15.4151 C   0  0  0  0  0  0  0  0  0  0  0  0
   39.7415   11.6440   13.7198 C   0  0  0  0  0  0  0  0  0  0  0  0
   42.5636   11.3521   16.9934 C   0  0  0  0  0  0  0  0  0  0  0  0
   42.7905    9.9231   16.5779 C   0  0  0  0  0  0  0  0  0  0  0  0
   40.6952    9.9211   15.1343 C   0  0  0  0  0  0  0  0  0  0  0  0
   38.3163   10.0583   14.8419 C   0  0  0  0  0  0  0  0  0  0  0  0
   38.4748   11.1569   14.0041 C   0  0  0  0  0  0  0  0  0  0  0  0
   40.8443   11.0270   14.2774 C   0  0  0  0  0  0  0  0  0  0  0  0
  2  3  2  0
  3  4  1  0
  4  5  2  0
  5  6  1  0
  1  9  1  0
  2 10  1  0
  6 10  2  0
  9 10  1  0
  6 11  1  0
  7 11  2  0
  7 12  1  0
  8 13  1  0
 12 13  2  0
  8 14  2  0
 11 14  1  0
M  END
$$$$
