3CCC_7AC_B_800_
     RDKit          3D

 21 23  0  0  0  0  0  0  0  0999 V2000
   44.3060    8.3970   15.8400 C   0  0  0  0  0  0  0  0  0  0  0  0
   43.5930    7.9290   14.7310 C   0  0  0  0  0  0  0  0  0  0  0  0
   42.4680    8.6360   14.3160 C   0  0  0  0  0  0  0  0  0  0  0  0
   41.6990    8.2140   13.1900 C   0  0  0  0  0  0  0  0  0  0  0  0
   42.0570    9.8060   14.9890 C   0  0  0  0  0  0  0  0  0  0  0  0
   39.6160   12.0770   13.2390 C   0  0  0  0  0  0  0  0  0  0  0  0
   38.4210   10.6270   14.7150 C   0  0  0  0  0  0  0  0  0  0  0  0
   43.8860    9.5680   16.5270 C   0  0  0  0  0  0  0  0  0  0  0  0
   44.8130   10.7990   18.5580 C   0  0  0  0  0  0  0  0  0  0  0  0
   44.7900    9.7340   17.5520 N   0  0  0  0  0  0  0  0  0  0  0  0
   45.6870    8.7140   17.4760 C   0  0  0  0  0  0  0  0  0  0  0  0
   45.4140    7.9320   16.4750 N   0  0  0  0  0  0  0  0  0  0  0  0
   41.0660    7.9120   12.3000 N   0  0  0  0  0  0  0  0  0  0  0  0
   40.8280   10.4820   14.5300 C   0  0  0  0  0  0  0  0  0  0  0  0
   40.8260   11.5100   13.5950 C   0  0  0  0  0  0  0  0  0  0  0  0
   38.4200   11.6480   13.7910 C   0  0  0  0  0  0  0  0  0  0  0  0
   39.6160   10.0310   15.0890 C   0  0  0  0  0  0  0  0  0  0  0  0
   39.5890    8.7260   16.2550 Cl  0  0  0  0  0  0  0  0  0  0  0  0
   42.7550   10.2670   16.1050 C   0  0  0  0  0  0  0  0  0  0  0  0
   42.3100   11.5150   16.8360 C   0  0  0  0  0  0  0  0  0  0  0  0
   41.2080   11.2360   17.7520 N   0  0  0  0  0  0  0  0  0  0  0  0
  1  2  2  0
  2  3  1  0
  3  4  1  0
  3  5  2  0
  1  8  1  0
  8 10  1  0
  9 10  1  0
 10 11  1  0
  1 12  1  0
 11 12  2  0
  4 13  3  0
  5 14  1  0
  6 15  2  0
 14 15  1  0
  6 16  1  0
  7 16  2  0
  7 17  1  0
 14 17  2  0
 17 18  1  0
  5 19  1  0
  8 19  2  0
 19 20  1  0
 20 21  1  0
M  END
$$$$
