3ISJ_A8D_A_308_
     RDKit          3D

 18 19  0  0  0  0  0  0  0  0999 V2000
   -3.1875   -6.4099   40.9875 C   0  0  0  0  0  0  0  0  0  0  0  0
    1.1073  -10.3593   32.2889 C   0  0  0  0  0  0  0  0  0  0  0  0
    1.4201  -12.4555   36.4060 O   0  0  0  0  0  0  0  0  0  0  0  0
    2.6173  -11.9400   33.8181 O   0  0  0  0  0  0  0  0  0  0  0  0
    0.3411  -12.8073   33.4523 O   0  0  0  0  0  0  0  0  0  0  0  0
   -0.9795   -9.3608   41.4929 C   0  0  0  0  0  0  0  0  0  0  0  0
   -0.2379  -10.3543   40.8276 C   0  0  0  0  0  0  0  0  0  0  0  0
   -1.4347   -8.3371   39.3474 C   0  0  0  0  0  0  0  0  0  0  0  0
   -0.3985   -9.5895   37.4569 C   0  0  0  0  0  0  0  0  0  0  0  0
    0.6496  -10.7451   35.0871 N   0  0  0  0  0  0  0  0  0  0  0  0
    0.5249  -11.1666   38.6766 N   0  0  0  0  0  0  0  0  0  0  0  0
   -2.2536   -7.3921   41.5104 O   0  0  0  0  0  0  0  0  0  0  0  0
    0.8508  -11.3545   36.2970 C   0  0  0  0  0  0  0  0  0  0  0  0
   -1.5963   -8.3344   40.7659 C   0  0  0  0  0  0  0  0  0  0  0  0
    0.3487  -10.7115   37.4093 C   0  0  0  0  0  0  0  0  0  0  0  0
   -0.6833   -9.3217   38.7499 C   0  0  0  0  0  0  0  0  0  0  0  0
   -0.1148  -10.3179   39.5004 C   0  0  0  0  0  0  0  0  0  0  0  0
    1.2014  -11.5387   33.6110 S   0  0  0  0  0  0  0  0  0  0  0  0
  6  7  2  0
  1 12  1  0
  3 13  2  0
 10 13  1  0
  6 14  1  0
  8 14  2  0
 12 14  1  0
  9 15  2  0
 11 15  1  0
 13 15  1  0
  8 16  1  0
  9 16  1  0
  7 17  1  0
 11 17  1  0
 16 17  2  0
  2 18  1  0
  4 18  2  0
  5 18  2  0
 10 18  1  0
M  END
$$$$
