1CQP_803_A_311_
     RDKit          3D

 29 31  0  0  0  0  0  0  0  0999 V2000
   31.7193   86.1863   39.5275 C   0  0  0  0  0  0  0  0  0  0  0  0
   32.4894   84.9014   39.1348 C   0  0  0  0  0  0  0  0  0  0  0  0
   33.6102   85.1949   38.1074 C   0  0  0  0  0  0  0  0  0  0  0  0
   33.1032   85.0272   36.6592 C   0  0  0  0  0  0  0  0  0  0  0  0
   34.2262   86.5678   38.2557 C   0  0  0  0  0  0  0  0  0  0  0  0
   33.8351   87.4663   39.1666 C   0  0  0  0  0  0  0  0  0  0  0  0
   34.4909   88.7784   39.2358 C   0  0  0  0  0  0  0  0  0  0  0  0
   34.1097   89.7164   40.1103 C   0  0  0  0  0  0  0  0  0  0  0  0
   32.9804   89.5170   41.0834 C   0  0  0  0  0  0  0  0  0  0  0  0
   33.4529   89.1044   42.4922 C   0  0  0  0  0  0  0  0  0  0  0  0
   32.0151   88.4765   40.4914 C   0  0  0  0  0  0  0  0  0  0  0  0
   32.7354   87.1659   40.1398 C   0  0  0  0  0  0  0  0  0  0  0  0
   30.8753   88.1771   41.4700 C   0  0  0  0  0  0  0  0  0  0  0  0
   30.0747   89.4657   41.7264 C   0  0  0  0  0  0  0  0  0  0  0  0
   28.7383   89.0209   42.3279 C   0  0  0  0  0  0  0  0  0  0  0  0
   27.8688   90.2682   42.6056 C   0  0  0  0  0  0  0  0  0  0  0  0
   27.4891   90.3755   44.0856 C   0  0  0  0  0  0  0  0  0  0  0  0
   26.4610   89.4308   44.3985 O   0  0  0  0  0  0  0  0  0  0  0  0
   28.7927   90.0868   44.8409 C   0  0  0  0  0  0  0  0  0  0  0  0
   29.1034   88.6319   44.6352 C   0  0  0  0  0  0  0  0  0  0  0  0
   29.3889   87.9219   45.5885 O   0  0  0  0  0  0  0  0  0  0  0  0
   29.0653   88.1201   43.4016 O   0  0  0  0  0  0  0  0  0  0  0  0
   31.1401   86.7946   38.3641 O   0  0  0  0  0  0  0  0  0  0  0  0
   29.9788   86.2264   38.0265 C   0  0  0  0  0  0  0  0  0  0  0  0
   29.4791   85.3055   38.6555 O   0  0  0  0  0  0  0  0  0  0  0  0
   29.3408   86.8253   36.8037 C   0  0  0  0  0  0  0  0  0  0  0  0
   29.1401   85.7398   35.7301 C   0  0  0  0  0  0  0  0  0  0  0  0
   27.9949   87.4678   37.1686 C   0  0  0  0  0  0  0  0  0  0  0  0
   28.2692   88.6263   38.1453 C   0  0  0  0  0  0  0  0  0  0  0  0
  1  2  1  0
  2  3  1  0
  3  4  1  0
  3  5  1  0
  5  6  2  0
  6  7  1  0
  7  8  2  0
  8  9  1  0
  9 10  1  0
  9 11  1  0
  1 12  1  0
  6 12  1  0
 11 12  1  0
 11 13  1  0
 13 14  1  0
 14 15  1  0
 15 16  1  0
 16 17  1  0
 17 18  1  0
 17 19  1  0
 19 20  1  0
 20 21  2  0
 15 22  1  0
 20 22  1  0
  1 23  1  0
 23 24  1  0
 24 25  2  0
 24 26  1  0
 26 27  1  0
 26 28  1  0
 28 29  1  0
M  END
$$$$
