1O3J_334_A_246_B
     RDKit          3D

 34 36  0  0  0  0  0  0  0  0999 V2000
   44.1449   -3.1964   26.0231 C   0  0  0  0  0  0  0  0  0  0  0  0
   44.5535   -1.8587   26.2193 C   0  0  0  0  0  0  0  0  0  0  0  0
   44.4740   -1.2498   27.4678 C   0  0  0  0  0  0  0  0  0  0  0  0
   43.9929   -1.9865   28.5123 C   0  0  0  0  0  0  0  0  0  0  0  0
   43.5893   -3.2673   28.3842 C   0  0  0  0  0  0  0  0  0  0  0  0
   43.6488   -3.9142   27.1446 C   0  0  0  0  0  0  0  0  0  0  0  0
   44.2484   -3.7822   24.7336 C   0  0  0  0  0  0  0  0  0  0  0  0
   43.8969   -5.0369   24.5305 N   0  0  0  0  0  0  0  0  0  0  0  0
   44.6966   -3.0465   23.7402 N   0  0  0  0  0  0  0  0  0  0  0  0
   43.8192   -1.6876   29.7426 N   0  0  0  0  0  0  0  0  0  0  0  0
   43.1583   -3.7721   29.5218 N   0  0  0  0  0  0  0  0  0  0  0  0
   43.3369   -2.7339   30.3357 C   0  0  0  0  0  0  0  0  0  0  0  0
   43.0662   -2.7151   31.7148 C   0  0  0  0  0  0  0  0  0  0  0  0
   42.7778   -3.9156   32.4037 C   0  0  0  0  0  0  0  0  0  0  0  0
   42.5130   -3.9057   33.7848 C   0  0  0  0  0  0  0  0  0  0  0  0
   42.1747   -5.1643   34.5977 C   0  0  0  0  0  0  0  0  0  0  0  0
   42.5397   -2.7214   34.4659 C   0  0  0  0  0  0  0  0  0  0  0  0
   42.8240   -1.5619   33.8019 C   0  0  0  0  0  0  0  0  0  0  0  0
   43.0868   -1.4907   32.4319 C   0  0  0  0  0  0  0  0  0  0  0  0
   43.3212   -0.2403   31.8330 O   0  0  0  0  0  0  0  0  0  0  0  0
   42.8998   -0.0440   34.9622 Br  0  0  0  0  0  0  0  0  0  0  0  0
   44.9306   -1.2731   25.4017 H   0  0  0  0  0  0  0  0  0  0  0  0
   44.7804   -0.2271   27.6157 H   0  0  0  0  0  0  0  0  0  0  0  0
   43.3174   -4.9399   27.0557 H   0  0  0  0  0  0  0  0  0  0  0  0
   43.5738   -5.5815   25.3171 H   0  0  0  0  0  0  0  0  0  0  0  0
   43.9065   -5.5141   23.6541 H   0  0  0  0  0  0  0  0  0  0  0  0
   44.9490   -2.0827   23.8990 H   0  0  0  0  0  0  0  0  0  0  0  0
   44.8153   -3.3837   22.8118 H   0  0  0  0  0  0  0  0  0  0  0  0
   43.9977   -0.8511   30.2213 H   0  0  0  0  0  0  0  0  0  0  0  0
   42.7573   -4.8581   31.8769 H   0  0  0  0  0  0  0  0  0  0  0  0
   41.2819   -4.9765   35.1820 H   0  0  0  0  0  0  0  0  0  0  0  0
   41.9992   -6.0017   33.9420 H   0  0  0  0  0  0  0  0  0  0  0  0
   42.9897   -5.3833   35.2714 H   0  0  0  0  0  0  0  0  0  0  0  0
   42.3349   -2.6862   35.5279 H   0  0  0  0  0  0  0  0  0  0  0  0
  1  2  2  0
  2  3  1  0
  3  4  2  0
  4  5  1  0
  1  6  1  0
  5  6  2  0
  1  7  1  0
  7  8  1  0
  7  9  2  0
  4 10  1  0
  5 11  1  0
 10 12  1  0
 11 12  2  0
 12 13  1  0
 13 14  2  0
 14 15  1  0
 15 16  1  0
 15 17  2  0
 17 18  1  0
 13 19  1  0
 18 19  2  0
 19 20  1  0
 18 21  1  0
  2 22  1  0
  3 23  1  0
  6 24  1  0
  8 25  1  0
  8 26  1  0
  9 27  1  0
  9 28  1  0
 10 29  1  0
 14 30  1  0
 16 31  1  0
 16 32  1  0
 16 33  1  0
 17 34  1  0
M  CHG  2   9   1  20  -1
M  END
$$$$
