3IMC_BZ3_B_701_
     RDKit          3D

 11 12  0  0  0  0  0  0  0  0999 V2000
   11.1120    9.3472   -5.0414 C   0  0  0  0  0  0  0  0  0  0  0  0
   15.3473   10.8201   -0.4898 C   0  0  0  0  0  0  0  0  0  0  0  0
   14.7657    9.9007   -4.9390 C   0  0  0  0  0  0  0  0  0  0  0  0
   14.0254   10.6258   -0.8528 C   0  0  0  0  0  0  0  0  0  0  0  0
   15.7857   10.1655   -4.0234 C   0  0  0  0  0  0  0  0  0  0  0  0
   13.1117   10.0932   -3.1601 C   0  0  0  0  0  0  0  0  0  0  0  0
   16.1732   10.6902   -1.5727 N   0  0  0  0  0  0  0  0  0  0  0  0
   12.4695    9.5928   -5.4393 O   0  0  0  0  0  0  0  0  0  0  0  0
   13.4391    9.8611   -4.5071 C   0  0  0  0  0  0  0  0  0  0  0  0
   14.1376   10.3727   -2.2521 C   0  0  0  0  0  0  0  0  0  0  0  0
   15.4547   10.3993   -2.6851 C   0  0  0  0  0  0  0  0  0  0  0  0
  2  4  2  0
  3  5  1  0
  2  7  1  0
  1  8  1  0
  3  9  2  0
  6  9  1  0
  8  9  1  0
  4 10  1  0
  6 10  2  0
  5 11  2  0
  7 11  1  0
 10 11  1  0
M  END
$$$$
