3ISJ_A8D_A_308_
     RDKit          3D

 18 19  0  0  0  0  0  0  0  0999 V2000
   11.0400    9.5660   -5.2060 C   0  0  0  0  0  0  0  0  0  0  0  0
   14.2820   10.5410    4.7060 C   0  0  0  0  0  0  0  0  0  0  0  0
   17.0380   11.3770    1.0800 O   0  0  0  0  0  0  0  0  0  0  0  0
   16.8010   10.4920    3.8290 O   0  0  0  0  0  0  0  0  0  0  0  0
   15.7360   12.7050    3.6400 O   0  0  0  0  0  0  0  0  0  0  0  0
   14.6860   10.1600   -4.7680 C   0  0  0  0  0  0  0  0  0  0  0  0
   15.6850   10.4580   -3.8230 C   0  0  0  0  0  0  0  0  0  0  0  0
   13.0970    9.9720   -2.9520 C   0  0  0  0  0  0  0  0  0  0  0  0
   14.1390   10.4010   -0.7280 C   0  0  0  0  0  0  0  0  0  0  0  0
   14.9930   10.8070    1.9470 N   0  0  0  0  0  0  0  0  0  0  0  0
   16.1710   10.7820   -1.4720 N   0  0  0  0  0  0  0  0  0  0  0  0
   12.4860    9.5880   -5.3440 O   0  0  0  0  0  0  0  0  0  0  0  0
   15.8730   10.9740    0.9110 C   0  0  0  0  0  0  0  0  0  0  0  0
   13.3710    9.9150   -4.3520 C   0  0  0  0  0  0  0  0  0  0  0  0
   15.3970   10.7170   -0.3580 C   0  0  0  0  0  0  0  0  0  0  0  0
   14.1150   10.2490   -2.0700 C   0  0  0  0  0  0  0  0  0  0  0  0
   15.3830   10.5020   -2.5250 C   0  0  0  0  0  0  0  0  0  0  0  0
   15.5060   11.1820    3.5930 S   0  0  0  0  0  0  0  0  0  0  0  0
  6  7  2  0
  1 12  1  0
  3 13  2  0
 10 13  1  0
  6 14  1  0
  8 14  2  0
 12 14  1  0
  9 15  2  0
 11 15  1  0
 13 15  1  0
  8 16  1  0
  9 16  1  0
  7 17  1  0
 11 17  1  0
 16 17  2  0
  2 18  1  0
  4 18  2  0
  5 18  2  0
 10 18  1  0
M  END
$$$$
