3ST6_RVE_B_451_
     RDKit          3D

 16 16  0  0  0  0  0  0  0  0999 V2000
   12.2629   44.1083   26.7445 C   0  0  0  0  0  0  0  0  0  0  0  0
   12.3550   42.9550   24.0987 O   0  0  0  0  0  0  0  0  0  0  0  0
   13.2591   42.9969   33.1117 O   0  0  0  0  0  0  0  0  0  0  0  0
   11.4842   41.1521   24.7950 O   0  0  0  0  0  0  0  0  0  0  0  0
   14.5167   43.3666   31.3655 O   0  0  0  0  0  0  0  0  0  0  0  0
   13.6955   42.8770   29.0354 O   0  0  0  0  0  0  0  0  0  0  0  0
   10.1098   41.8275   30.6634 C   0  0  0  0  0  0  0  0  0  0  0  0
   10.3643   41.7299   29.3124 C   0  0  0  0  0  0  0  0  0  0  0  0
   11.1219   42.2604   31.4549 C   0  0  0  0  0  0  0  0  0  0  0  0
   11.7254   41.9371   27.4244 O   0  0  0  0  0  0  0  0  0  0  0  0
   11.9545   42.2493   24.9935 C   0  0  0  0  0  0  0  0  0  0  0  0
   13.4402   43.0946   31.8780 C   0  0  0  0  0  0  0  0  0  0  0  0
   11.9969   42.7929   26.4466 C   0  0  0  0  0  0  0  0  0  0  0  0
   11.5453   42.1145   28.7373 C   0  0  0  0  0  0  0  0  0  0  0  0
   12.5456   42.5290   29.5578 C   0  0  0  0  0  0  0  0  0  0  0  0
   12.3307   42.6188   30.9352 C   0  0  0  0  0  0  0  0  0  0  0  0
  7  8  2  0
  7  9  1  0
  2 11  1  0
  4 11  2  0
  3 12  2  0
  5 12  1  0
  1 13  2  0
 10 13  1  0
 11 13  1  0
  8 14  1  0
 10 14  1  0
  6 15  1  0
 14 15  2  0
  9 16  2  0
 12 16  1  0
 15 16  1  0
M  END
$$$$
