1R1H_BIR_A_2001_
     RDKit          3D

 29 30  0  0  0  0  0  0  0  0999 V2000
   25.9879   51.5915   29.6277 C   0  0  0  0  0  0  0  0  0  0  0  0
   26.1345   50.5877   30.7772 C   0  0  0  0  0  0  0  0  0  0  0  0
   27.4460   49.9566   30.7113 N   0  0  0  0  0  0  0  0  0  0  0  0
   24.8323   49.4417   30.7026 P   0  0  0  0  0  0  0  0  0  0  0  0
   23.6129   50.2884   30.8890 O   0  0  0  0  0  0  0  0  0  0  0  0
   24.9257   48.6274   29.4454 O   0  0  0  0  0  0  0  0  0  0  0  0
   24.9814   48.3902   32.0732 C   0  0  0  0  0  0  0  0  0  0  0  0
   23.6890   48.1995   32.8805 C   0  0  0  0  0  0  0  0  0  0  0  0
   23.4495   49.3637   33.8071 C   0  0  0  0  0  0  0  0  0  0  0  0
   22.3197   49.7599   34.0478 O   0  0  0  0  0  0  0  0  0  0  0  0
   24.5077   49.9612   34.3385 N   0  0  0  0  0  0  0  0  0  0  0  0
   24.2773   51.0255   35.3013 C   0  0  0  0  0  0  0  0  0  0  0  0
   24.3498   50.4777   36.7247 C   0  0  0  0  0  0  0  0  0  0  0  0
   25.2767   52.1168   35.1377 C   0  0  0  0  0  0  0  0  0  0  0  0
   26.2085   51.9779   34.3421 O   0  0  0  0  0  0  0  0  0  0  0  0
   25.1449   53.1361   35.7973 O   0  0  0  0  0  0  0  0  0  0  0  0
   23.7847   46.8920   33.6810 C   0  0  0  0  0  0  0  0  0  0  0  0
   22.5043   46.5982   34.4094 C   0  0  0  0  0  0  0  0  0  0  0  0
   22.5042   46.4511   35.7947 C   0  0  0  0  0  0  0  0  0  0  0  0
   21.3171   46.1956   36.4728 C   0  0  0  0  0  0  0  0  0  0  0  0
   20.1069   46.0882   35.7755 C   0  0  0  0  0  0  0  0  0  0  0  0
   20.1171   46.2323   34.3833 C   0  0  0  0  0  0  0  0  0  0  0  0
   21.3052   46.4838   33.7072 C   0  0  0  0  0  0  0  0  0  0  0  0
   18.8494   45.8384   36.4901 C   0  0  0  0  0  0  0  0  0  0  0  0
   17.6975   46.5708   36.1771 C   0  0  0  0  0  0  0  0  0  0  0  0
   16.5042   46.3403   36.8562 C   0  0  0  0  0  0  0  0  0  0  0  0
   16.4459   45.3714   37.8550 C   0  0  0  0  0  0  0  0  0  0  0  0
   17.5858   44.6360   38.1739 C   0  0  0  0  0  0  0  0  0  0  0  0
   18.7790   44.8695   37.4978 C   0  0  0  0  0  0  0  0  0  0  0  0
  1  2  1  0
  2  3  1  0
  2  4  1  0
  4  5  2  0
  4  6  1  0
  4  7  1  0
  7  8  1  0
  8  9  1  0
  9 10  2  0
  9 11  1  0
 11 12  1  0
 12 13  1  0
 12 14  1  0
 14 15  1  0
 14 16  2  0
  8 17  1  0
 17 18  1  0
 18 19  2  0
 19 20  1  0
 20 21  2  0
 21 22  1  0
 18 23  1  0
 22 23  2  0
 21 24  1  0
 24 25  2  0
 25 26  1  0
 26 27  2  0
 27 28  1  0
 24 29  1  0
 28 29  2  0
M  END
$$$$
