3M67_E36_A_262_
     RDKit          3D

 28 31  0  0  0  0  0  0  0  0999 V2000
   -0.9270   10.1030   12.6310 O   0  0  0  0  0  0  0  0  0  0  0  0
   -0.0930   10.6550   13.6500 C   0  0  0  0  0  0  0  0  0  0  0  0
   -0.2270    9.8520   14.9910 C   0  0  0  0  0  0  0  0  0  0  0  0
   -1.3620    9.0050   15.0230 O   0  0  0  0  0  0  0  0  0  0  0  0
   -1.4000    8.1260   13.9740 C   0  0  0  0  0  0  0  0  0  0  0  0
   -1.1380    8.7250   12.6270 C   0  0  0  0  0  0  0  0  0  0  0  0
   -1.1110    7.9580   11.5160 C   0  0  0  0  0  0  0  0  0  0  0  0
   -1.3320    6.5110   11.7280 C   0  0  0  0  0  0  0  0  0  0  0  0
   -1.3290    5.4380   10.7570 N   0  0  0  0  0  0  0  0  0  0  0  0
   -1.5480    4.3620   11.4530 C   0  0  0  0  0  0  0  0  0  0  0  0
   -1.7210    4.6760   12.8490 N   0  0  0  0  0  0  0  0  0  0  0  0
   -1.5620    6.0270   12.9320 C   0  0  0  0  0  0  0  0  0  0  0  0
   -1.6090    6.8340   14.1510 C   0  0  0  0  0  0  0  0  0  0  0  0
   -1.7000    2.6640   10.8590 S   0  0  0  0  0  0  0  0  0  0  0  0
   -2.8380    2.0910   12.2030 C   0  0  0  0  0  0  0  0  0  0  0  0
   -4.0810    3.0480   12.3070 C   0  0  0  0  0  0  0  0  0  0  0  0
   -4.5050    3.6230   11.2210 O   0  0  0  0  0  0  0  0  0  0  0  0
   -4.7750    3.2600   13.6590 C   0  0  0  0  0  0  0  0  0  0  0  0
   -4.9800    2.1460   14.6020 C   0  0  0  0  0  0  0  0  0  0  0  0
   -5.5860    2.3660   15.7880 C   0  0  0  0  0  0  0  0  0  0  0  0
   -6.0250    3.7320   16.0690 C   0  0  0  0  0  0  0  0  0  0  0  0
   -5.8820    4.7600   15.2190 C   0  0  0  0  0  0  0  0  0  0  0  0
   -5.2350    4.5050   13.9510 C   0  0  0  0  0  0  0  0  0  0  0  0
   -5.8860    0.9300   16.8560 S   0  0  0  0  0  0  0  0  0  0  0  0
   -7.4410    0.8990   16.8550 O   0  0  0  0  0  0  0  0  0  0  0  0
   -6.7940    3.9290   17.5810 Cl  0  0  0  0  0  0  0  0  0  0  0  0
   -5.2700    1.1430   18.2330 O   0  0  0  0  0  0  0  0  0  0  0  0
   -5.1900   -0.3770   16.0070 N   0  0  0  0  0  0  0  0  0  0  0  0
  1  2  1  0
  2  3  1  0
  3  4  1  0
  4  5  1  0
  1  6  1  0
  5  6  2  0
  6  7  1  0
  7  8  2  0
  8  9  1  0
  9 10  2  0
 10 11  1  0
  8 12  1  0
 11 12  1  0
  5 13  1  0
 12 13  2  0
 10 14  1  0
 14 15  1  0
 15 16  1  0
 16 17  2  0
 16 18  1  0
 18 19  2  0
 19 20  1  0
 20 21  2  0
 21 22  1  0
 18 23  1  0
 22 23  2  0
 20 24  1  0
 24 25  2  0
 21 26  1  0
 24 27  2  0
 24 28  1  0
M  END
$$$$
