2WEH_FB1_A_1263_
     RDKit          3D

 11 11  0  0  0  0  0  0  0  0999 V2000
   -4.6523    4.4564   14.2735 C   0  0  0  0  0  0  0  0  0  0  0  0
   -6.7934    3.8980   17.4681 Cl  0  0  0  0  0  0  0  0  0  0  0  0
   -4.2135    3.1718   14.0008 C   0  0  0  0  0  0  0  0  0  0  0  0
   -4.5812    2.0974   14.8030 C   0  0  0  0  0  0  0  0  0  0  0  0
   -5.4049    2.2457   15.9339 C   0  0  0  0  0  0  0  0  0  0  0  0
   -5.8276    3.5504   16.1646 C   0  0  0  0  0  0  0  0  0  0  0  0
   -5.4839    4.6258   15.3444 C   0  0  0  0  0  0  0  0  0  0  0  0
   -5.8832    0.9266   16.8398 S   0  0  0  0  0  0  0  0  0  0  0  0
   -5.3984   -0.4542   16.1572 N   0  0  0  0  0  0  0  0  0  0  0  0
   -5.4454    1.0671   18.1649 O   0  0  0  0  0  0  0  0  0  0  0  0
   -7.3142    0.8927   16.8131 O   0  0  0  0  0  0  0  0  0  0  0  0
  1  3  2  0
  3  4  1  0
  4  5  2  0
  2  6  1  0
  5  6  1  0
  6  7  2  0
  1  7  1  0
  5  8  1  0
  8  9  1  0
  8 10  2  0
  8 11  2  0
M  END
$$$$
