1O5F_CR9_H_256_
     RDKit          3D

 51 54  0  0  0  0  0  0  0  0999 V2000
   16.3690   -6.1780   25.3860 C   0  0  0  0  0  0  0  0  0  0  0  0
   15.4850   -5.1350   24.8890 C   0  0  0  0  0  0  0  0  0  0  0  0
   15.0230   -5.1330   23.6260 F   0  0  0  0  0  0  0  0  0  0  0  0
   15.0810   -4.0570   25.6650 C   0  0  0  0  0  0  0  0  0  0  0  0
   15.5690   -4.0300   26.9250 C   0  0  0  0  0  0  0  0  0  0  0  0
   16.3940   -4.9650   27.4370 C   0  0  0  0  0  0  0  0  0  0  0  0
   16.8210   -6.0480   26.7190 C   0  0  0  0  0  0  0  0  0  0  0  0
   16.7570   -7.2920   24.5990 C   0  0  0  0  0  0  0  0  0  0  0  0
   17.8610   -7.9480   24.8430 N   0  0  0  0  0  0  0  0  0  0  0  0
   16.0220   -7.7060   23.5950 N   0  0  0  0  0  0  0  0  0  0  0  0
   15.3600   -3.1730   27.8500 N   0  0  0  0  0  0  0  0  0  0  0  0
   16.7320   -4.7190   28.6870 N   0  0  0  0  0  0  0  0  0  0  0  0
   16.0550   -3.5960   28.8610 C   0  0  0  0  0  0  0  0  0  0  0  0
   16.1060   -2.8990   30.0850 C   0  0  0  0  0  0  0  0  0  0  0  0
   17.0520   -3.2260   31.0720 C   0  0  0  0  0  0  0  0  0  0  0  0
   17.1080   -2.5440   32.2760 C   0  0  0  0  0  0  0  0  0  0  0  0
   16.2160   -1.5070   32.5450 C   0  0  0  0  0  0  0  0  0  0  0  0
   15.2550   -1.1490   31.5860 C   0  0  0  0  0  0  0  0  0  0  0  0
   15.2130   -1.8420   30.3820 C   0  0  0  0  0  0  0  0  0  0  0  0
   14.2640   -1.4530   29.4750 O   0  0  0  0  0  0  0  0  0  0  0  0
   14.3110   -0.1430   31.7690 O   0  0  0  0  0  0  0  0  0  0  0  0
   13.9530    0.8320   34.0290 C   0  0  0  0  0  0  0  0  0  0  0  0
   12.6090    1.5620   34.0070 C   0  0  0  0  0  0  0  0  0  0  0  0
   12.8220    3.0780   33.8490 C   0  0  0  0  0  0  0  0  0  0  0  0
   13.9670    3.4040   32.8920 C   0  0  0  0  0  0  0  0  0  0  0  0
   14.1680    2.2590   31.8920 C   0  0  0  0  0  0  0  0  0  0  0  0
   14.6430    0.9610   32.6050 C   0  0  0  0  0  0  0  0  0  0  0  0
   13.7090   -0.6540   34.4020 C   0  0  0  0  0  0  0  0  0  0  0  0
   14.4230   -3.2900   25.2900 H   0  0  0  0  0  0  0  0  0  0  0  0
   17.4870   -6.7780   27.1550 H   0  0  0  0  0  0  0  0  0  0  0  0
   18.4480   -7.6610   25.5980 H   0  0  0  0  0  0  0  0  0  0  0  0
   18.1270   -8.7150   24.2590 H   0  0  0  0  0  0  0  0  0  0  0  0
   15.1790   -7.2260   23.3630 H   0  0  0  0  0  0  0  0  0  0  0  0
   16.3160   -8.4880   23.0460 H   0  0  0  0  0  0  0  0  0  0  0  0
   14.7970   -2.3810   27.7970 H   0  0  0  0  0  0  0  0  0  0  0  0
   17.7570   -4.0250   30.8970 H   0  0  0  0  0  0  0  0  0  0  0  0
   17.8470   -2.8220   33.0110 H   0  0  0  0  0  0  0  0  0  0  0  0
   16.2760   -0.9860   33.4890 H   0  0  0  0  0  0  0  0  0  0  0  0
   14.5770    1.2750   34.7920 H   0  0  0  0  0  0  0  0  0  0  0  0
   12.0230    1.1970   33.1760 H   0  0  0  0  0  0  0  0  0  0  0  0
   12.0730    1.3750   34.9260 H   0  0  0  0  0  0  0  0  0  0  0  0
   13.0060    3.5200   34.8170 H   0  0  0  0  0  0  0  0  0  0  0  0
   11.9240    3.5150   33.4390 H   0  0  0  0  0  0  0  0  0  0  0  0
   13.7310    4.3080   32.3580 H   0  0  0  0  0  0  0  0  0  0  0  0
   14.8710    3.5640   33.4610 H   0  0  0  0  0  0  0  0  0  0  0  0
   14.9190    2.5690   31.1860 H   0  0  0  0  0  0  0  0  0  0  0  0
   13.2510    2.0630   31.3580 H   0  0  0  0  0  0  0  0  0  0  0  0
   15.7140    1.0340   32.7360 H   0  0  0  0  0  0  0  0  0  0  0  0
   13.5990   -1.2520   33.5110 H   0  0  0  0  0  0  0  0  0  0  0  0
   14.5280   -1.0440   34.9890 H   0  0  0  0  0  0  0  0  0  0  0  0
   12.7990   -0.7600   34.9710 H   0  0  0  0  0  0  0  0  0  0  0  0
  1  2  2  0
  2  3  1  0
  2  4  1  0
  4  5  2  0
  5  6  1  0
  1  7  1  0
  6  7  2  0
  1  8  1  0
  8  9  1  0
  8 10  2  0
  5 11  1  0
  6 12  1  0
 11 13  1  0
 12 13  2  0
 13 14  1  0
 14 15  2  0
 15 16  1  0
 16 17  2  0
 17 18  1  0
 14 19  1  0
 18 19  2  0
 19 20  1  0
 18 21  1  0
 22 23  1  0
 23 24  1  0
 24 25  1  0
 25 26  1  0
 21 27  1  0
 22 27  1  0
 26 27  1  0
 22 28  1  0
  4 29  1  0
  7 30  1  0
  9 31  1  0
  9 32  1  0
 10 33  1  0
 10 34  1  0
 11 35  1  0
 15 36  1  0
 16 37  1  0
 17 38  1  0
 22 39  1  0
 23 40  1  0
 23 41  1  0
 24 42  1  0
 24 43  1  0
 25 44  1  0
 25 45  1  0
 26 46  1  0
 26 47  1  0
 27 48  1  0
 28 49  1  0
 28 50  1  0
 28 51  1  0
M  CHG  2  10   1  20  -1
M  END
$$$$
