1P57_CR4_B_346_
     RDKit          3D

 31 33  0  0  0  0  0  0  0  0999 V2000
   16.3215   -6.2323   25.2157 C   0  0  0  0  0  0  0  0  0  0  0  0
   15.3657   -5.2480   24.7735 C   0  0  0  0  0  0  0  0  0  0  0  0
   14.9714   -4.1615   25.5801 C   0  0  0  0  0  0  0  0  0  0  0  0
   15.5555   -4.1042   26.8106 C   0  0  0  0  0  0  0  0  0  0  0  0
   16.4597   -5.0032   27.2633 C   0  0  0  0  0  0  0  0  0  0  0  0
   16.8732   -6.0782   26.5097 C   0  0  0  0  0  0  0  0  0  0  0  0
   16.6968   -7.3087   24.3932 C   0  0  0  0  0  0  0  0  0  0  0  0
   17.7768   -7.9894   24.6218 N   0  0  0  0  0  0  0  0  0  0  0  0
   15.9775   -7.6605   23.3753 N   0  0  0  0  0  0  0  0  0  0  0  0
   15.3962   -3.2485   27.7515 N   0  0  0  0  0  0  0  0  0  0  0  0
   16.8879   -4.7401   28.4841 N   0  0  0  0  0  0  0  0  0  0  0  0
   16.1857   -3.6458   28.7152 C   0  0  0  0  0  0  0  0  0  0  0  0
   16.2709   -2.9690   29.9398 C   0  0  0  0  0  0  0  0  0  0  0  0
   17.2591   -3.2343   30.9109 C   0  0  0  0  0  0  0  0  0  0  0  0
   17.2732   -2.5670   32.1226 C   0  0  0  0  0  0  0  0  0  0  0  0
   16.2964   -1.6086   32.4013 C   0  0  0  0  0  0  0  0  0  0  0  0
   15.3114   -1.3245   31.4573 C   0  0  0  0  0  0  0  0  0  0  0  0
   15.3052   -1.9987   30.2406 C   0  0  0  0  0  0  0  0  0  0  0  0
   14.3481   -1.7236   29.2765 O   0  0  0  0  0  0  0  0  0  0  0  0
   14.9278   -5.3344   23.7917 H   0  0  0  0  0  0  0  0  0  0  0  0
   14.2596   -3.4191   25.2592 H   0  0  0  0  0  0  0  0  0  0  0  0
   17.5922   -6.7849   26.8978 H   0  0  0  0  0  0  0  0  0  0  0  0
   18.3602   -7.7506   25.3963 H   0  0  0  0  0  0  0  0  0  0  0  0
   18.0452   -8.7223   23.9994 H   0  0  0  0  0  0  0  0  0  0  0  0
   15.1578   -7.1461   23.1513 H   0  0  0  0  0  0  0  0  0  0  0  0
   16.2588   -8.4257   22.7986 H   0  0  0  0  0  0  0  0  0  0  0  0
   14.8010   -2.4785   27.7447 H   0  0  0  0  0  0  0  0  0  0  0  0
   18.0241   -3.9701   30.7147 H   0  0  0  0  0  0  0  0  0  0  0  0
   18.0392   -2.7909   32.8502 H   0  0  0  0  0  0  0  0  0  0  0  0
   16.3025   -1.0868   33.3472 H   0  0  0  0  0  0  0  0  0  0  0  0
   14.5564   -0.5858   31.6685 H   0  0  0  0  0  0  0  0  0  0  0  0
  1  2  2  0
  2  3  1  0
  3  4  2  0
  4  5  1  0
  1  6  1  0
  5  6  2  0
  1  7  1  0
  7  8  1  0
  7  9  2  0
  4 10  1  0
  5 11  1  0
 10 12  1  0
 11 12  2  0
 12 13  1  0
 13 14  2  0
 14 15  1  0
 15 16  2  0
 16 17  1  0
 13 18  1  0
 17 18  2  0
 18 19  1  0
  2 20  1  0
  3 21  1  0
  6 22  1  0
  8 23  1  0
  8 24  1  0
  9 25  1  0
  9 26  1  0
 10 27  1  0
 14 28  1  0
 15 29  1  0
 16 30  1  0
 17 31  1  0
M  CHG  2   9   1  19  -1
M  END
$$$$
