1Y3Y_UIR_A_2222_
     RDKit          3D

 22 25  0  0  0  0  0  0  0  0999 V2000
   -5.0641    9.5866   19.6290 N   0  0  0  0  0  0  0  0  0  0  0  0
   -3.7597    9.3904   19.6335 C   0  0  0  0  0  0  0  0  0  0  0  0
   -3.1016    8.2033   20.0561 C   0  0  0  0  0  0  0  0  0  0  0  0
   -3.7807    7.0755   20.5131 C   0  0  0  0  0  0  0  0  0  0  0  0
   -3.0517    5.9374   20.8936 C   0  0  0  0  0  0  0  0  0  0  0  0
   -1.6576    5.9307   20.8127 C   0  0  0  0  0  0  0  0  0  0  0  0
   -0.8648    4.7226   21.2399 C   0  0  0  0  0  0  0  0  0  0  0  0
   -1.6598    3.4592   21.0093 N   0  0  0  0  0  0  0  0  0  0  0  0
   -1.6758    3.0549   19.5678 C   0  0  0  0  0  0  0  0  0  0  0  0
   -0.4424    2.1544   19.3589 C   0  0  0  0  0  0  0  0  0  0  0  0
    0.1899    1.9248   20.6982 C   0  0  0  0  0  0  0  0  0  0  0  0
   -0.8274    2.4238   21.7399 C   0  0  0  0  0  0  0  0  0  0  0  0
   -0.0349    3.1726   22.8574 C   0  0  0  0  0  0  0  0  0  0  0  0
   -0.5367    2.7946   24.2894 C   0  0  0  0  0  0  0  0  0  0  0  0
   -1.7227    3.6169   24.4627 N   0  0  0  0  0  0  0  0  0  0  0  0
   -1.7130    4.7279   23.6525 C   0  0  0  0  0  0  0  0  0  0  0  0
   -2.6293    5.5916   23.6348 O   0  0  0  0  0  0  0  0  0  0  0  0
   -0.4769    4.6510   22.7316 C   0  0  0  0  0  0  0  0  0  0  0  0
   -2.3893    3.6916   25.8134 C   0  0  0  0  0  0  0  0  0  0  0  0
   -0.9769    7.0691   20.3480 C   0  0  0  0  0  0  0  0  0  0  0  0
   -1.6909    8.1857   19.9618 C   0  0  0  0  0  0  0  0  0  0  0  0
   -3.0159   10.4383   19.2020 N   0  0  0  0  0  0  0  0  0  0  0  0
  1  2  1  0
  2  3  1  0
  3  4  2  0
  4  5  1  0
  5  6  2  0
  6  7  1  0
  7  8  1  0
  8  9  1  0
  9 10  1  0
 10 11  1  0
  8 12  1  0
 11 12  1  0
 12 13  1  0
 13 14  1  0
 14 15  1  0
 15 16  1  0
 16 17  2  0
  7 18  1  0
 13 18  1  0
 16 18  1  0
 15 19  1  0
  6 20  1  0
  3 21  1  0
 20 21  2  0
  2 22  2  0
M  END
$$$$
