1Y3X_UIB_A_1994_
     RDKit          3D

 33 37  0  0  0  0  0  0  0  0999 V2000
   -5.0170    9.5770   19.8370 N   0  0  0  0  0  0  0  0  0  0  0  0
   -3.7270    9.3500   19.6500 C   0  0  0  0  0  0  0  0  0  0  0  0
   -3.0410   10.3560   19.0290 N   0  0  0  0  0  0  0  0  0  0  0  0
   -3.1370    8.1210   20.0830 C   0  0  0  0  0  0  0  0  0  0  0  0
   -1.7680    7.8570   19.8580 C   0  0  0  0  0  0  0  0  0  0  0  0
   -1.2160    6.6560   20.2930 C   0  0  0  0  0  0  0  0  0  0  0  0
   -2.0090    5.6880   20.9520 C   0  0  0  0  0  0  0  0  0  0  0  0
   -1.3370    4.4500   21.4840 C   0  0  0  0  0  0  0  0  0  0  0  0
   -0.7630    4.4420   22.9150 C   0  0  0  0  0  0  0  0  0  0  0  0
   -0.4360    2.9350   23.1290 C   0  0  0  0  0  0  0  0  0  0  0  0
   -1.4120    2.2010   22.1670 C   0  0  0  0  0  0  0  0  0  0  0  0
   -2.1330    1.1340   23.0160 C   0  0  0  0  0  0  0  0  0  0  0  0
   -0.5110    1.5400   21.1020 C   0  0  0  0  0  0  0  0  0  0  0  0
   -2.2270    3.2530   21.4180 N   0  0  0  0  0  0  0  0  0  0  0  0
   -2.5370    2.8520   20.0400 C   0  0  0  0  0  0  0  0  0  0  0  0
   -0.7490    2.7330   24.6450 C   0  0  0  0  0  0  0  0  0  0  0  0
   -1.8100    3.6930   24.9060 N   0  0  0  0  0  0  0  0  0  0  0  0
   -2.7820    3.6560   26.0570 C   0  0  0  0  0  0  0  0  0  0  0  0
   -2.5730    4.7960   27.0540 C   0  0  0  0  0  0  0  0  0  0  0  0
   -3.5640    5.8110   27.2260 C   0  0  0  0  0  0  0  0  0  0  0  0
   -3.4700    6.8050   28.2200 C   0  0  0  0  0  0  0  0  0  0  0  0
   -2.3330    6.7840   29.0380 C   0  0  0  0  0  0  0  0  0  0  0  0
   -1.3350    5.8040   28.9060 C   0  0  0  0  0  0  0  0  0  0  0  0
   -1.4270    4.8030   27.9240 C   0  0  0  0  0  0  0  0  0  0  0  0
   -0.3070    5.9780   29.8440 O   0  0  0  0  0  0  0  0  0  0  0  0
   -0.7300    7.1530   30.5830 C   0  0  0  0  0  0  0  0  0  0  0  0
   -2.0080    7.6340   30.0670 O   0  0  0  0  0  0  0  0  0  0  0  0
   -1.8490    4.7090   23.9840 C   0  0  0  0  0  0  0  0  0  0  0  0
   -2.6300    5.6990   24.0180 O   0  0  0  0  0  0  0  0  0  0  0  0
    0.4760    2.8910   25.5700 C   0  0  0  0  0  0  0  0  0  0  0  0
    1.2450    1.5920   25.6870 C   0  0  0  0  0  0  0  0  0  0  0  0
   -3.3580    5.9540   21.1870 C   0  0  0  0  0  0  0  0  0  0  0  0
   -3.9250    7.1760   20.7470 C   0  0  0  0  0  0  0  0  0  0  0  0
  1  2  1  0
  2  3  2  0
  2  4  1  0
  4  5  2  0
  5  6  1  0
  6  7  2  0
  7  8  1  0
  8  9  1  0
  9 10  1  0
 10 11  1  0
 11 12  1  0
 11 13  1  0
  8 14  1  0
 11 14  1  0
 14 15  1  0
 10 16  1  0
 16 17  1  0
 17 18  1  0
 18 19  1  0
 19 20  2  0
 20 21  1  0
 21 22  2  0
 22 23  1  0
 19 24  1  0
 23 24  2  0
 23 25  1  0
 25 26  1  0
 22 27  1  0
 26 27  1  0
  9 28  1  0
 17 28  1  0
 28 29  2  0
 16 30  1  0
 30 31  1  0
  7 32  1  0
  4 33  1  0
 32 33  2  0
M  END
$$$$
