3VP2_BP0_A_601_
     RDKit          3D

  9  9  0  0  0  0  0  0  0  0999 V2000
    8.1366   -8.0785    0.1400 S   0  0  0  0  0  0  0  0  0  0  0  0
    4.7424  -10.1818    0.7642 N   0  0  0  0  0  0  0  0  0  0  0  0
    2.5194  -10.4415   -2.0290 N   0  0  0  0  0  0  0  0  0  0  0  0
    3.5579  -10.2728    0.1505 N   0  0  0  0  0  0  0  0  0  0  0  0
    7.1397  -10.0742    0.5103 C   0  0  0  0  0  0  0  0  0  0  0  0
    3.6879  -10.3459   -1.2478 C   0  0  0  0  0  0  0  0  0  0  0  0
    7.4842   -8.9711    0.6255 C   0  0  0  0  0  0  0  0  0  0  0  0
    5.8076  -10.1830   -0.1618 C   0  0  0  0  0  0  0  0  0  0  0  0
    5.3209  -10.2992   -1.7181 S   0  0  0  0  0  0  0  0  0  0  0  0
  2  4  1  0
  3  6  1  0
  4  6  2  0
  1  7  1  0
  5  7  1  0
  5  8  1  0
  2  8  2  0
  6  9  1  0
  8  9  1  0
M  END
$$$$
