1Q6S_214_B_1301_
     RDKit          3D

 52 58  0  0  0  0  0  0  0  0999 V2000
   22.2720   31.8130   49.5900 C   0  0  0  0  0  0  0  0  0  0  0  0
   22.4370   30.4310   49.8020 C   0  0  0  0  0  0  0  0  0  0  0  0
   23.5160   29.9340   50.5680 C   0  0  0  0  0  0  0  0  0  0  0  0
   24.4740   30.8430   51.1450 C   0  0  0  0  0  0  0  0  0  0  0  0
   24.2700   32.2580   50.9030 C   0  0  0  0  0  0  0  0  0  0  0  0
   23.1820   32.7410   50.1330 C   0  0  0  0  0  0  0  0  0  0  0  0
   24.9430   31.2710   55.4180 C   0  0  0  0  0  0  0  0  0  0  0  0
   24.3230   30.6730   54.3020 C   0  0  0  0  0  0  0  0  0  0  0  0
   22.9440   30.9760   54.0500 C   0  0  0  0  0  0  0  0  0  0  0  0
   22.2370   31.8590   54.8860 C   0  0  0  0  0  0  0  0  0  0  0  0
   22.8970   32.4510   55.9960 C   0  0  0  0  0  0  0  0  0  0  0  0
   24.2530   32.1400   56.2460 C   0  0  0  0  0  0  0  0  0  0  0  0
   28.8970   30.4600   52.8690 C   0  0  0  0  0  0  0  0  0  0  0  0
   27.8850   31.4090   53.1590 C   0  0  0  0  0  0  0  0  0  0  0  0
   28.0770   32.2390   54.2960 C   0  0  0  0  0  0  0  0  0  0  0  0
   29.2200   32.1270   55.0850 C   0  0  0  0  0  0  0  0  0  0  0  0
   30.2300   31.1860   54.7930 C   0  0  0  0  0  0  0  0  0  0  0  0
   30.0510   30.3510   53.6700 C   0  0  0  0  0  0  0  0  0  0  0  0
   25.6860   30.3340   52.0260 C   0  0  0  0  0  0  0  0  0  0  0  0
   26.4300   29.2690   51.2640 N   0  0  0  0  0  0  0  0  0  0  0  0
   26.6330   31.5660   52.3150 C   0  0  0  0  0  0  0  0  0  0  0  0
   25.0750   29.7450   53.3630 C   0  0  0  0  0  0  0  0  0  0  0  0
   27.8530   28.5010   47.3770 C   0  0  0  0  0  0  0  0  0  0  0  0
   27.9970   27.6540   48.4930 C   0  0  0  0  0  0  0  0  0  0  0  0
   27.4770   28.0350   49.7090 C   0  0  0  0  0  0  0  0  0  0  0  0
   26.7960   29.2930   49.8790 C   0  0  0  0  0  0  0  0  0  0  0  0
   26.6530   30.1350   48.7600 C   0  0  0  0  0  0  0  0  0  0  0  0
   27.1830   29.7450   47.5090 C   0  0  0  0  0  0  0  0  0  0  0  0
   27.4350   27.4780   50.9580 N   0  0  0  0  0  0  0  0  0  0  0  0
   26.8300   28.1520   51.9380 N   0  0  0  0  0  0  0  0  0  0  0  0
   22.2070   33.4340   56.9090 C   0  0  0  0  0  0  0  0  0  0  0  0
   21.1670   34.0190   56.2800 F   0  0  0  0  0  0  0  0  0  0  0  0
   23.0940   34.3920   57.2870 F   0  0  0  0  0  0  0  0  0  0  0  0
   21.5910   32.6060   58.4100 P   0  0  0  0  0  0  0  0  0  0  0  0
   22.7620   31.9510   59.1360 O   0  0  0  0  0  0  0  0  0  0  0  0
   20.6230   31.6020   58.0430 O   0  0  0  0  0  0  0  0  0  0  0  0
   20.9900   33.6850   59.2820 O   0  0  0  0  0  0  0  0  0  0  0  0
   32.1570   29.7430   55.6560 C   0  0  0  0  0  0  0  0  0  0  0  0
   35.3260   28.4640   57.3750 C   0  0  0  0  0  0  0  0  0  0  0  0
   37.0110   29.6240   58.7750 C   0  0  0  0  0  0  0  0  0  0  0  0
   34.1350   28.4700   56.6010 C   0  0  0  0  0  0  0  0  0  0  0  0
   33.3810   29.6790   56.4130 C   0  0  0  0  0  0  0  0  0  0  0  0
   33.8960   30.9040   57.0230 C   0  0  0  0  0  0  0  0  0  0  0  0
   35.0680   30.8180   57.7650 N   0  0  0  0  0  0  0  0  0  0  0  0
   35.7520   29.6770   57.9470 C   0  0  0  0  0  0  0  0  0  0  0  0
   31.4900   30.9950   55.5350 C   0  0  0  0  0  0  0  0  0  0  0  0
   32.0320   32.1820   56.1360 C   0  0  0  0  0  0  0  0  0  0  0  0
   33.2240   32.1360   56.8740 C   0  0  0  0  0  0  0  0  0  0  0  0
   33.8700   33.6650   57.5910 P   0  0  0  0  0  0  0  0  0  0  0  0
   34.9310   33.2970   58.6240 O   0  0  0  0  0  0  0  0  0  0  0  0
   32.8420   34.4880   58.2160 O   0  0  0  0  0  0  0  0  0  0  0  0
   34.5720   34.4180   56.4570 O   0  0  0  0  0  0  0  0  0  0  0  0
  1  2  2  0
  2  3  1  0
  3  4  2  0
  4  5  1  0
  1  6  1  0
  5  6  2  0
  7  8  2  0
  8  9  1  0
  9 10  2  0
 10 11  1  0
  7 12  1  0
 11 12  2  0
 13 14  2  0
 14 15  1  0
 15 16  2  0
 16 17  1  0
 13 18  1  0
 17 18  2  0
  4 19  1  0
 19 20  1  0
 14 21  1  0
 19 21  1  0
  8 22  1  0
 19 22  1  0
 23 24  2  0
 24 25  1  0
 20 26  1  0
 25 26  2  0
 26 27  1  0
 23 28  1  0
 27 28  2  0
 25 29  1  0
 20 30  1  0
 29 30  2  0
 11 31  1  0
 31 32  1  0
 31 33  1  0
 31 34  1  0
 34 35  1  0
 34 36  1  0
 34 37  2  0
 39 41  2  0
 38 42  2  0
 41 42  1  0
 42 43  1  0
 43 44  1  0
 39 45  1  0
 40 45  1  0
 44 45  2  0
 17 46  1  0
 38 46  1  0
 46 47  2  0
 43 48  2  0
 47 48  1  0
 48 49  1  0
 49 50  1  0
 49 51  1  0
 49 52  2  0
M  END
$$$$
