2CBU_CTS_A_1447_
     RDKit          3D

 13 14  0  0  0  0  0  0  0  0999 V2000
   -0.5614   10.7067   10.5799 C   0  0  0  0  0  0  0  0  0  0  0  0
    0.2784   11.5555    9.6326 C   0  0  0  0  0  0  0  0  0  0  0  0
   -0.3281   11.7796    8.2498 C   0  0  0  0  0  0  0  0  0  0  0  0
   -1.1404   10.5567    7.8441 C   0  0  0  0  0  0  0  0  0  0  0  0
   -2.3831   10.5219    8.7356 C   0  0  0  0  0  0  0  0  0  0  0  0
   -3.1563    9.2200    8.6779 C   0  0  0  0  0  0  0  0  0  0  0  0
    0.4878   12.8135   10.2565 O   0  0  0  0  0  0  0  0  0  0  0  0
    0.7676   12.0935    7.3834 O   0  0  0  0  0  0  0  0  0  0  0  0
   -1.5769   10.6808    6.4923 O   0  0  0  0  0  0  0  0  0  0  0  0
   -2.3054    8.0589    8.7776 O   0  0  0  0  0  0  0  0  0  0  0  0
   -1.9256   10.4318   10.1354 N   0  0  0  0  0  0  0  0  0  0  0  0
   -3.8998    9.2451   10.0061 C   0  0  0  0  0  0  0  0  0  0  0  0
   -2.8774    9.7370   11.0048 C   0  0  0  0  0  0  0  0  0  0  0  0
  1  2  1  0
  2  3  1  0
  3  4  1  0
  4  5  1  0
  5  6  1  0
  2  7  1  0
  3  8  1  0
  4  9  1  0
  6 10  1  0
  1 11  1  0
  5 11  1  0
  6 12  1  0
 11 13  1  0
 12 13  1  0
M  END
$$$$
