1Y2B_DEE_A_502_
     RDKit          3D

 12 12  0  0  0  0  0  0  0  0999 V2000
    4.7809   35.1217   59.3733 O   0  0  0  0  0  0  0  0  0  0  0  0
    5.5592   35.9737   58.9517 C   0  0  0  0  0  0  0  0  0  0  0  0
    6.3257   36.7731   59.7611 O   0  0  0  0  0  0  0  0  0  0  0  0
    6.3245   36.4798   61.1704 C   0  0  0  0  0  0  0  0  0  0  0  0
    7.1546   37.5210   61.8886 C   0  0  0  0  0  0  0  0  0  0  0  0
    5.5691   36.3936   57.5492 C   0  0  0  0  0  0  0  0  0  0  0  0
    6.1233   37.5283   56.9565 C   0  0  0  0  0  0  0  0  0  0  0  0
    6.8763   38.6906   57.4873 C   0  0  0  0  0  0  0  0  0  0  0  0
    4.9817   35.6951   56.4532 C   0  0  0  0  0  0  0  0  0  0  0  0
    4.2489   34.4047   56.4850 C   0  0  0  0  0  0  0  0  0  0  0  0
    5.1569   36.3318   55.2885 N   0  0  0  0  0  0  0  0  0  0  0  0
    5.8423   37.4316   55.6223 N   0  0  0  0  0  0  0  0  0  0  0  0
  1  2  2  0
  2  3  1  0
  3  4  1  0
  4  5  1  0
  2  6  1  0
  6  7  1  0
  7  8  1  0
  6  9  2  0
  9 10  1  0
  9 11  1  0
  7 12  2  0
 11 12  1  0
M  END
$$$$
