3LKA_M4S_A_1_
     RDKit          3D

 12 12  0  0  0  0  0  0  0  0999 V2000
   -2.6639   -5.5294   -7.5497 C   0  0  0  0  0  0  0  0  0  0  0  0
   -2.6541   -5.1129   -4.0641 N   0  0  0  0  0  0  0  0  0  0  0  0
   -5.5880   -6.2186   -9.6248 O   0  0  0  0  0  0  0  0  0  0  0  0
   -2.0272   -6.0098   -5.0689 S   0  0  0  0  0  0  0  0  0  0  0  0
   -3.5351   -5.5869   -8.6260 C   0  0  0  0  0  0  0  0  0  0  0  0
   -2.0035   -7.4039   -4.5383 O   0  0  0  0  0  0  0  0  0  0  0  0
   -4.7866   -6.1796   -8.5106 C   0  0  0  0  0  0  0  0  0  0  0  0
   -0.6165   -5.6171   -5.3525 O   0  0  0  0  0  0  0  0  0  0  0  0
   -5.1996   -6.7024   -7.2817 C   0  0  0  0  0  0  0  0  0  0  0  0
   -3.0450   -6.0672   -6.3209 C   0  0  0  0  0  0  0  0  0  0  0  0
   -6.8067   -6.9557   -9.6221 C   0  0  0  0  0  0  0  0  0  0  0  0
   -4.3154   -6.6538   -6.1924 C   0  0  0  0  0  0  0  0  0  0  0  0
  2  4  1  0
  1  5  2  0
  4  6  2  0
  3  7  1  0
  5  7  1  0
  4  8  2  0
  7  9  2  0
  1 10  1  0
  4 10  1  0
  3 11  1  0
  9 12  1  0
 10 12  2  0
M  END
$$$$
