2WI2_ZZ3_B_1225_
     RDKit          3D

 10 10  0  0  0  0  0  0  0  0999 V2000
    7.5158    4.8997   12.9713 N   0  0  0  0  0  0  0  0  0  0  0  0
    8.7460    4.3319   12.9779 C   0  0  0  0  0  0  0  0  0  0  0  0
    9.8186    5.0413   12.5661 N   0  0  0  0  0  0  0  0  0  0  0  0
    8.8996    3.0576   13.3972 N   0  0  0  0  0  0  0  0  0  0  0  0
   10.1254    2.4924   13.4041 C   0  0  0  0  0  0  0  0  0  0  0  0
   10.2969    1.0715   13.8709 C   0  0  0  0  0  0  0  0  0  0  0  0
   11.1980    3.2018   12.9924 N   0  0  0  0  0  0  0  0  0  0  0  0
   11.0443    4.4760   12.5730 C   0  0  0  0  0  0  0  0  0  0  0  0
   12.3909    5.3662   12.0555 S   0  0  0  0  0  0  0  0  0  0  0  0
   13.7986    4.9129   13.0147 C   0  0  0  0  0  0  0  0  0  0  0  0
  1  2  1  0
  2  3  2  0
  2  4  1  0
  4  5  2  0
  5  6  1  0
  5  7  1  0
  3  8  1  0
  7  8  2  0
  8  9  1  0
  9 10  1  0
M  END
$$$$
