3NNV_437_A_355_
     RDKit          3D

 31 34  0  0  0  0  0  0  0  0999 V2000
   -3.5302    1.0456   19.3526 C   0  0  0  0  0  0  0  0  0  0  0  0
   -2.3159    1.7436   19.3286 C   0  0  0  0  0  0  0  0  0  0  0  0
   -1.8677    2.3040   18.1245 C   0  0  0  0  0  0  0  0  0  0  0  0
   -4.2747    0.9134   18.1845 C   0  0  0  0  0  0  0  0  0  0  0  0
   -3.8317    1.4865   16.9762 C   0  0  0  0  0  0  0  0  0  0  0  0
   -2.6131    2.1992   16.9262 C   0  0  0  0  0  0  0  0  0  0  0  0
   -2.1257    2.8384   15.7888 N   0  0  0  0  0  0  0  0  0  0  0  0
   -0.9211    2.7029   15.2255 C   0  0  0  0  0  0  0  0  0  0  0  0
   -0.0938    1.9008   15.6648 O   0  0  0  0  0  0  0  0  0  0  0  0
   -0.6521    3.4747   14.1492 N   0  0  0  0  0  0  0  0  0  0  0  0
    0.5338    3.4123   13.4587 C   0  0  0  0  0  0  0  0  0  0  0  0
    1.4484    2.3771   13.2421 C   0  0  0  0  0  0  0  0  0  0  0  0
    2.4361    2.9751   12.4483 C   0  0  0  0  0  0  0  0  0  0  0  0
    3.6498    2.2413   11.9127 C   0  0  0  0  0  0  0  0  0  0  0  0
    4.3229    1.3632   12.9869 C   0  0  0  0  0  0  0  0  0  0  0  0
    4.7193    3.1678   11.3054 C   0  0  0  0  0  0  0  0  0  0  0  0
    3.1088    1.3505   10.8014 C   0  0  0  0  0  0  0  0  0  0  0  0
    2.1903    4.2619   12.1386 N   0  0  0  0  0  0  0  0  0  0  0  0
    0.9905    4.5023   12.7869 N   0  0  0  0  0  0  0  0  0  0  0  0
    0.4802    5.7501   12.6914 C   0  0  0  0  0  0  0  0  0  0  0  0
   -0.0861    6.4835   13.7366 C   0  0  0  0  0  0  0  0  0  0  0  0
    0.5284    6.4274   11.4554 C   0  0  0  0  0  0  0  0  0  0  0  0
    0.0475    7.7225   11.2527 C   0  0  0  0  0  0  0  0  0  0  0  0
   -0.5006    8.4093   12.3156 C   0  0  0  0  0  0  0  0  0  0  0  0
   -1.0374    9.8114   12.0933 C   0  0  0  0  0  0  0  0  0  0  0  0
   -0.5728    7.7830   13.5760 C   0  0  0  0  0  0  0  0  0  0  0  0
   -0.2032   10.5352   11.1769 O   0  0  0  0  0  0  0  0  0  0  0  0
   -4.6255    1.3215   15.8418 C   0  0  0  0  0  0  0  0  0  0  0  0
   -5.8181    0.5807   15.9073 C   0  0  0  0  0  0  0  0  0  0  0  0
   -6.2524    0.0318   17.1110 C   0  0  0  0  0  0  0  0  0  0  0  0
   -5.4774    0.2082   18.2500 C   0  0  0  0  0  0  0  0  0  0  0  0
  1  2  2  0
  2  3  1  0
  1  4  1  0
  4  5  2  0
  3  6  2  0
  5  6  1  0
  6  7  1  0
  7  8  1  0
  8  9  2  0
  8 10  1  0
 10 11  1  0
 11 12  2  0
 12 13  1  0
 13 14  1  0
 14 15  1  0
 14 16  1  0
 14 17  1  0
 13 18  2  0
 11 19  1  0
 18 19  1  0
 19 20  1  0
 20 21  2  0
 20 22  1  0
 22 23  2  0
 23 24  1  0
 24 25  1  0
 21 26  1  0
 24 26  2  0
 25 27  1  0
  5 28  1  0
 28 29  2  0
 29 30  1  0
  4 31  1  0
 30 31  2  0
M  END
$$$$
