2XAB_VHD_A_1224_
     RDKit          3D

 22 24  0  0  0  0  0  0  0  0999 V2000
   13.9574    0.3091   10.6807 C   0  0  0  0  0  0  0  0  0  0  0  0
   13.1989   -0.4064    9.5648 C   0  0  0  0  0  0  0  0  0  0  0  0
   13.6307    0.1290    8.1997 C   0  0  0  0  0  0  0  0  0  0  0  0
   13.3703   -1.9138    9.6794 C   0  0  0  0  0  0  0  0  0  0  0  0
   14.5003   -2.5325    9.1331 C   0  0  0  0  0  0  0  0  0  0  0  0
   14.7095   -3.9048    9.2686 C   0  0  0  0  0  0  0  0  0  0  0  0
   15.9022   -4.5211    8.6120 C   0  0  0  0  0  0  0  0  0  0  0  0
   16.8115   -4.9732    9.2919 O   0  0  0  0  0  0  0  0  0  0  0  0
   15.9102   -4.6072    7.2414 N   0  0  0  0  0  0  0  0  0  0  0  0
   16.9981   -5.2377    6.4759 C   0  0  0  0  0  0  0  0  0  0  0  0
   16.3415   -5.5197    5.1528 C   0  0  0  0  0  0  0  0  0  0  0  0
   16.8389   -6.1961    4.0439 C   0  0  0  0  0  0  0  0  0  0  0  0
   16.0595   -6.3365    2.9126 C   0  0  0  0  0  0  0  0  0  0  0  0
   14.7859   -5.8060    2.8787 C   0  0  0  0  0  0  0  0  0  0  0  0
   14.2854   -5.1280    3.9731 C   0  0  0  0  0  0  0  0  0  0  0  0
   15.0661   -4.9793    5.1161 C   0  0  0  0  0  0  0  0  0  0  0  0
   14.7520   -4.2718    6.4029 C   0  0  0  0  0  0  0  0  0  0  0  0
   13.7796   -4.6797    9.9993 C   0  0  0  0  0  0  0  0  0  0  0  0
   13.9837   -6.0190   10.1608 O   0  0  0  0  0  0  0  0  0  0  0  0
   12.6705   -4.0770   10.5789 C   0  0  0  0  0  0  0  0  0  0  0  0
   12.4571   -2.7077   10.4234 C   0  0  0  0  0  0  0  0  0  0  0  0
   11.3445   -2.1403   10.9649 O   0  0  0  0  0  0  0  0  0  0  0  0
  1  2  1  0
  2  3  1  0
  2  4  1  0
  4  5  2  0
  5  6  1  0
  6  7  1  0
  7  8  2  0
  7  9  1  0
  9 10  1  0
 10 11  1  0
 11 12  1  0
 12 13  2  0
 13 14  1  0
 14 15  2  0
 11 16  2  0
 15 16  1  0
  9 17  1  0
 16 17  1  0
  6 18  2  0
 18 19  1  0
 18 20  1  0
  4 21  1  0
 20 21  2  0
 21 22  1  0
M  END
$$$$
