2XP5_4FF_A_1165_
     RDKit          3D

 15 16  0  0  0  0  0  0  0  0999 V2000
  -36.9654   28.3690   27.1988 O   0  0  0  0  0  0  0  0  0  0  0  0
  -37.2354   28.0840   26.0104 C   0  0  0  0  0  0  0  0  0  0  0  0
  -38.2571   28.5431   25.5004 O   0  0  0  0  0  0  0  0  0  0  0  0
  -36.3811   27.0806   25.1455 C   0  0  0  0  0  0  0  0  0  0  0  0
  -36.6876   26.6223   23.8556 C   0  0  0  0  0  0  0  0  0  0  0  0
  -35.6980   25.7832   23.4835 N   0  0  0  0  0  0  0  0  0  0  0  0
  -34.7976   25.7125   24.5207 C   0  0  0  0  0  0  0  0  0  0  0  0
  -35.2328   26.5337   25.5067 N   0  0  0  0  0  0  0  0  0  0  0  0
  -33.6019   24.9727   24.5838 C   0  0  0  0  0  0  0  0  0  0  0  0
  -32.9487   24.5704   23.4015 C   0  0  0  0  0  0  0  0  0  0  0  0
  -31.7463   23.8302   23.4235 C   0  0  0  0  0  0  0  0  0  0  0  0
  -31.1823   23.5081   24.6718 C   0  0  0  0  0  0  0  0  0  0  0  0
  -31.7929   23.9303   25.8718 C   0  0  0  0  0  0  0  0  0  0  0  0
  -33.0111   24.6508   25.8129 C   0  0  0  0  0  0  0  0  0  0  0  0
  -37.9277   27.0266   22.9764 C   0  0  0  0  0  0  0  0  0  0  0  0
  1  2  1  0
  2  3  2  0
  2  4  1  0
  4  5  2  0
  5  6  1  0
  6  7  1  0
  4  8  1  0
  7  8  2  0
  7  9  1  0
  9 10  2  0
 10 11  1  0
 11 12  2  0
 12 13  1  0
  9 14  1  0
 13 14  2  0
  5 15  1  0
M  END
$$$$
