2R3H_SCE_A_501_
     RDKit          3D

 18 20  0  0  0  0  0  0  0  0999 V2000
   -0.2505   30.5128    7.7116 C   0  0  0  0  0  0  0  0  0  0  0  0
    0.4160   29.2885    7.8826 N   0  0  0  0  0  0  0  0  0  0  0  0
    1.6574   29.3785    7.1732 C   0  0  0  0  0  0  0  0  0  0  0  0
    1.7729   30.5978    6.5370 N   0  0  0  0  0  0  0  0  0  0  0  0
    0.6287   31.3211    6.9128 C   0  0  0  0  0  0  0  0  0  0  0  0
    0.1020   28.1341    8.5824 C   0  0  0  0  0  0  0  0  0  0  0  0
    1.0104   27.0777    8.5579 C   0  0  0  0  0  0  0  0  0  0  0  0
    2.2129   27.0830    7.9025 N   0  0  0  0  0  0  0  0  0  0  0  0
    2.5596   28.2052    7.2167 C   0  0  0  0  0  0  0  0  0  0  0  0
    3.7500   28.2966    6.5232 N   0  0  0  0  0  0  0  0  0  0  0  0
    4.7633   27.2602    6.6650 C   0  0  0  0  0  0  0  0  0  0  0  0
    4.8181   26.3112    5.4947 C   0  0  0  0  0  0  0  0  0  0  0  0
    4.6340   24.9317    5.6918 C   0  0  0  0  0  0  0  0  0  0  0  0
    4.6906   24.0776    4.5715 C   0  0  0  0  0  0  0  0  0  0  0  0
    4.9243   24.5170    3.3092 N   0  0  0  0  0  0  0  0  0  0  0  0
    5.0978   25.8436    3.1411 C   0  0  0  0  0  0  0  0  0  0  0  0
    5.0490   26.7736    4.1984 C   0  0  0  0  0  0  0  0  0  0  0  0
   -1.5667   30.8396    8.2810 C   0  0  0  0  0  0  0  0  0  0  0  0
  1  2  1  0
  2  3  1  0
  3  4  2  0
  4  5  1  0
  1  5  2  0
  2  6  1  0
  6  7  2  0
  7  8  1  0
  3  9  1  0
  8  9  2  0
  9 10  1  0
 10 11  1  0
 11 12  1  0
 12 13  2  0
 13 14  1  0
 14 15  2  0
 15 16  1  0
 16 17  2  0
 12 17  1  0
  1 18  1  0
M  END
$$$$
