3S71_EVD_B_1_
     RDKit          3D

 13 14  0  0  0  0  0  0  0  0999 V2000
   15.6350   -0.3340   16.1840 N   0  0  0  0  0  0  0  0  0  0  0  0
   17.0920    2.5040   16.0140 O   0  0  0  0  0  0  0  0  0  0  0  0
   15.0580    0.9750   16.8850 S   0  0  0  0  0  0  0  0  0  0  0  0
   15.5660    1.0990   18.2330 O   0  0  0  0  0  0  0  0  0  0  0  0
   15.7330    2.3040   16.0530 C   0  0  0  0  0  0  0  0  0  0  0  0
   13.6240    1.1200   16.6660 O   0  0  0  0  0  0  0  0  0  0  0  0
   15.0810    3.3480   15.3130 C   0  0  0  0  0  0  0  0  0  0  0  0
   16.2030    5.2890   13.9860 C   0  0  0  0  0  0  0  0  0  0  0  0
   17.4500    5.8330   13.7220 C   0  0  0  0  0  0  0  0  0  0  0  0
   18.6630    5.2470   14.1510 C   0  0  0  0  0  0  0  0  0  0  0  0
   18.6130    4.1050   14.9540 C   0  0  0  0  0  0  0  0  0  0  0  0
   17.3660    3.6270   15.2510 C   0  0  0  0  0  0  0  0  0  0  0  0
   16.1500    4.1620   14.8160 C   0  0  0  0  0  0  0  0  0  0  0  0
  1  3  1  0
  3  4  2  0
  2  5  1  0
  3  5  1  0
  3  6  2  0
  5  7  2  0
  8  9  1  0
  9 10  2  0
 10 11  1  0
  2 12  1  0
 11 12  2  0
  7 13  1  0
  8 13  2  0
 12 13  1  0
M  END
$$$$
