3S75_EVG_B_1_
     RDKit          3D

  9  9  0  0  0  0  0  0  0  0999 V2000
   17.0323    2.5036   16.0846 O   0  0  0  0  0  0  0  0  0  0  0  0
   15.0178    0.9668   16.9503 S   0  0  0  0  0  0  0  0  0  0  0  0
   13.5618    1.0378   16.7543 O   0  0  0  0  0  0  0  0  0  0  0  0
   15.6753    2.3278   16.1319 C   0  0  0  0  0  0  0  0  0  0  0  0
   15.4986    1.0677   18.2707 O   0  0  0  0  0  0  0  0  0  0  0  0
   14.9910    3.4067   15.4683 C   0  0  0  0  0  0  0  0  0  0  0  0
   16.0257    4.2228   14.9551 C   0  0  0  0  0  0  0  0  0  0  0  0
   17.2588    3.6952   15.3225 C   0  0  0  0  0  0  0  0  0  0  0  0
   15.5725   -0.3136   16.2342 N   0  0  0  0  0  0  0  0  0  0  0  0
  2  3  2  0
  1  4  1  0
  2  4  1  0
  2  5  2  0
  4  6  2  0
  6  7  1  0
  1  8  1  0
  7  8  2  0
  2  9  1  0
M  END
$$$$
