2PJB_983_B_501_
     RDKit          3D

 44 46  0  0  0  0  0  0  0  0999 V2000
   20.3280   31.2480  100.0090 C   0  0  0  0  0  0  0  0  0  0  0  0
   21.2790   32.1620   99.4900 C   0  0  0  0  0  0  0  0  0  0  0  0
   22.6630   31.9320   99.6940 C   0  0  0  0  0  0  0  0  0  0  0  0
   23.0930   30.7920  100.4180 C   0  0  0  0  0  0  0  0  0  0  0  0
   22.1430   29.8790  100.9380 C   0  0  0  0  0  0  0  0  0  0  0  0
   20.7600   30.1040  100.7320 C   0  0  0  0  0  0  0  0  0  0  0  0
   19.8200   29.1890  101.2190 C   0  0  0  0  0  0  0  0  0  0  0  0
   18.9500   28.4650  100.2920 O   0  0  0  0  0  0  0  0  0  0  0  0
   19.4860   27.3030   99.7560 C   0  0  0  0  0  0  0  0  0  0  0  0
   20.5990   26.8940  100.1300 O   0  0  0  0  0  0  0  0  0  0  0  0
   18.7340   26.6490   98.8510 N   0  0  0  0  0  0  0  0  0  0  0  0
   19.1550   25.3930   98.1820 C   0  0  0  0  0  0  0  0  0  0  0  0
   18.0090   24.3680   98.1930 C   0  0  0  0  0  0  0  0  0  0  0  0
   17.5320   23.9840   99.6100 C   0  0  0  0  0  0  0  0  0  0  0  0
   18.4620   23.6990  100.6560 C   0  0  0  0  0  0  0  0  0  0  0  0
   17.9910   23.3100  101.9350 C   0  0  0  0  0  0  0  0  0  0  0  0
   16.5940   23.2050  102.1730 C   0  0  0  0  0  0  0  0  0  0  0  0
   15.6690   23.4890  101.1360 C   0  0  0  0  0  0  0  0  0  0  0  0
   16.1380   23.8790   99.8580 C   0  0  0  0  0  0  0  0  0  0  0  0
   19.5540   25.6690   96.7260 C   0  0  0  0  0  0  0  0  0  0  0  0
   21.0100   26.7580   96.5740 S   0  0  0  0  0  0  0  0  0  0  0  0
   21.5280   26.6860   95.1760 O   0  0  0  0  0  0  0  0  0  0  0  0
   20.6170   28.1790   96.8870 O   0  0  0  0  0  0  0  0  0  0  0  0
   22.1560   26.2590   97.6250 N   0  0  0  0  0  0  0  0  0  0  0  0
   23.5050   25.9930   97.2920 C   0  0  0  0  0  0  0  0  0  0  0  0
   24.4650   26.9840   97.9960 C   0  0  0  0  0  0  0  0  0  0  0  0
   24.2600   27.0450   99.5180 C   0  0  0  0  0  0  0  0  0  0  0  0
   24.2780   28.3870   97.4000 C   0  0  0  0  0  0  0  0  0  0  0  0
   23.9120   24.2080   97.5080 P   0  0  0  0  0  0  0  0  0  0  0  0
   25.3720   24.0320   97.3260 O   0  0  0  0  0  0  0  0  0  0  0  0
   22.9900   23.5000   96.5850 O   0  0  0  0  0  0  0  0  0  0  0  0
   23.4770   23.7550   99.2320 C   0  0  0  0  0  0  0  0  0  0  0  0
   23.3780   22.2080   99.3720 C   0  0  0  0  0  0  0  0  0  0  0  0
   22.1210   21.6380   98.6710 C   0  0  0  0  0  0  0  0  0  0  0  0
   22.2440   20.5200   98.1450 O   0  0  0  0  0  0  0  0  0  0  0  0
   21.0700   22.3250   98.6950 O   0  0  0  0  0  0  0  0  0  0  0  0
   23.3320   21.7670  100.8490 C   0  0  0  0  0  0  0  0  0  0  0  0
   24.1950   20.7280  101.2740 C   0  0  0  0  0  0  0  0  0  0  0  0
   22.3540   22.2900  101.7510 C   0  0  0  0  0  0  0  0  0  0  0  0
   22.2470   21.7590  103.0610 C   0  0  0  0  0  0  0  0  0  0  0  0
   23.1100   20.7130  103.4710 C   0  0  0  0  0  0  0  0  0  0  0  0
   24.0820   20.1990  102.5800 C   0  0  0  0  0  0  0  0  0  0  0  0
   24.9850   19.0450  103.0110 C   0  0  0  0  0  0  0  0  0  0  0  0
   24.3900   17.7750  102.5730 N   0  0  0  0  0  0  0  0  0  0  0  0
  1  2  2  0
  2  3  1  0
  3  4  2  0
  4  5  1  0
  1  6  1  0
  5  6  2  0
  6  7  1  0
  7  8  1  0
  8  9  1  0
  9 10  2  0
  9 11  1  0
 11 12  1  0
 12 13  1  0
 13 14  1  0
 14 15  2  0
 15 16  1  0
 16 17  2  0
 17 18  1  0
 14 19  1  0
 18 19  2  0
 12 20  1  0
 20 21  1  0
 21 22  2  0
 21 23  2  0
 21 24  1  0
 24 25  1  0
 25 26  1  0
 26 27  1  0
 26 28  1  0
 25 29  1  0
 29 30  2  0
 29 31  1  0
 29 32  1  0
 32 33  1  0
 33 34  1  0
 34 35  2  0
 34 36  1  0
 33 37  1  0
 37 38  2  0
 37 39  1  0
 39 40  2  0
 40 41  1  0
 38 42  1  0
 41 42  2  0
 42 43  1  0
 43 44  1  0
M  END
$$$$
