1WCC_CIG_A_1299_
     RDKit          3D

  8  8  0  0  0  0  0  0  0  0999 V2000
   28.2050    7.2770   64.3858 N   0  0  0  0  0  0  0  0  0  0  0  0
   27.9056    5.9249   64.4125 C   0  0  0  0  0  0  0  0  0  0  0  0
   28.6172    5.0259   65.2908 C   0  0  0  0  0  0  0  0  0  0  0  0
   28.2136    3.7323   65.1952 N   0  0  0  0  0  0  0  0  0  0  0  0
   27.2549    3.2249   64.3941 C   0  0  0  0  0  0  0  0  0  0  0  0
   26.6052    4.1426   63.5769 C   0  0  0  0  0  0  0  0  0  0  0  0
   25.3906    3.5520   62.5361 Cl  0  0  0  0  0  0  0  0  0  0  0  0
   26.9312    5.4596   63.5844 N   0  0  0  0  0  0  0  0  0  0  0  0
  1  2  1  0
  2  3  2  0
  3  4  1  0
  4  5  2  0
  5  6  1  0
  6  7  1  0
  2  8  1  0
  6  8  2  0
M  END
$$$$
