3F3V_1BU_B_1_
     RDKit          3D

 38 42  0  0  0  0  0  0  0  0999 V2000
   -2.1390    5.3230   30.4990 C   0  0  0  0  0  0  0  0  0  0  0  0
   -3.4010    5.8590   30.5070 C   0  0  0  0  0  0  0  0  0  0  0  0
   -4.3770    5.2090   31.1960 C   0  0  0  0  0  0  0  0  0  0  0  0
   -4.0130    4.1180   31.8190 N   0  0  0  0  0  0  0  0  0  0  0  0
   -1.8850    4.2230   31.1460 N   0  0  0  0  0  0  0  0  0  0  0  0
  -15.3430    4.1430   33.1380 C   0  0  0  0  0  0  0  0  0  0  0  0
  -15.4420    2.6520   33.2760 C   0  0  0  0  0  0  0  0  0  0  0  0
  -14.3860    1.9030   32.8720 C   0  0  0  0  0  0  0  0  0  0  0  0
  -16.5600    2.0640   33.7960 C   0  0  0  0  0  0  0  0  0  0  0  0
  -16.6190    0.7150   33.9250 C   0  0  0  0  0  0  0  0  0  0  0  0
  -15.5480   -0.0370   33.5030 C   0  0  0  0  0  0  0  0  0  0  0  0
  -14.4300    0.5560   32.9930 C   0  0  0  0  0  0  0  0  0  0  0  0
  -13.4640   -0.2030   32.5950 N   0  0  0  0  0  0  0  0  0  0  0  0
  -13.7670   -1.2530   32.1190 N   0  0  0  0  0  0  0  0  0  0  0  0
  -12.6820   -1.8530   31.7760 C   0  0  0  0  0  0  0  0  0  0  0  0
  -12.7190   -3.2510   31.1720 C   0  0  0  0  0  0  0  0  0  0  0  0
  -14.1910   -3.5000   30.9560 C   0  0  0  0  0  0  0  0  0  0  0  0
  -12.0020   -3.4260   29.8710 C   0  0  0  0  0  0  0  0  0  0  0  0
  -12.1240   -4.2590   32.1260 C   0  0  0  0  0  0  0  0  0  0  0  0
  -11.6630   -1.0860   32.0420 C   0  0  0  0  0  0  0  0  0  0  0  0
  -12.1790   -0.0120   32.5610 C   0  0  0  0  0  0  0  0  0  0  0  0
  -11.5120    1.0240   32.9900 N   0  0  0  0  0  0  0  0  0  0  0  0
  -10.4790    1.5160   32.4010 C   0  0  0  0  0  0  0  0  0  0  0  0
  -10.1470    1.0590   31.3660 O   0  0  0  0  0  0  0  0  0  0  0  0
   -9.8470    2.5330   32.9440 N   0  0  0  0  0  0  0  0  0  0  0  0
   -8.8040    3.2640   32.4760 C   0  0  0  0  0  0  0  0  0  0  0  0
   -7.9560    3.8920   33.3670 C   0  0  0  0  0  0  0  0  0  0  0  0
   -6.8900    4.6710   32.9570 C   0  0  0  0  0  0  0  0  0  0  0  0
   -8.5480    3.4950   31.1320 C   0  0  0  0  0  0  0  0  0  0  0  0
   -7.4820    4.2810   30.7230 C   0  0  0  0  0  0  0  0  0  0  0  0
   -6.6310    4.8730   31.6310 C   0  0  0  0  0  0  0  0  0  0  0  0
   -5.6170    5.6270   31.2530 N   0  0  0  0  0  0  0  0  0  0  0  0
   -3.6630    7.0120   29.8310 C   0  0  0  0  0  0  0  0  0  0  0  0
   -2.6260    7.6030   29.1610 C   0  0  0  0  0  0  0  0  0  0  0  0
   -2.8380    8.7050   28.4930 N   0  0  0  0  0  0  0  0  0  0  0  0
   -1.3650    7.0650   29.1710 C   0  0  0  0  0  0  0  0  0  0  0  0
   -1.1090    5.9150   29.8430 C   0  0  0  0  0  0  0  0  0  0  0  0
   -2.8140    3.6380   31.7910 C   0  0  0  0  0  0  0  0  0  0  0  0
  1  2  2  0
  2  3  1  0
  3  4  2  0
  1  5  1  0
  6  7  1  0
  7  8  2  0
  7  9  1  0
  9 10  2  0
 10 11  1  0
  8 12  1  0
 11 12  2  0
 12 13  1  0
 13 14  1  0
 14 15  2  0
 15 16  1  0
 16 17  1  0
 16 18  1  0
 16 19  1  0
 15 20  1  0
 13 21  1  0
 20 21  2  0
 21 22  1  0
 22 23  1  0
 23 24  2  0
 23 25  1  0
 25 26  1  0
 26 27  2  0
 27 28  1  0
 26 29  1  0
 29 30  2  0
 28 31  2  0
 30 31  1  0
  3 32  1  0
 31 32  1  0
  2 33  1  0
 33 34  2  0
 34 35  1  0
 34 36  1  0
  1 37  1  0
 36 37  2  0
  4 38  1  0
  5 38  2  0
M  END
$$$$
