2HWO_RBS_A_1345_
     RDKit          3D

 22 24  0  0  0  0  0  0  0  0999 V2000
   -7.0688    7.9907   26.8590 O   0  0  0  0  0  0  0  0  0  0  0  0
   -6.4204    8.6612   26.0680 C   0  0  0  0  0  0  0  0  0  0  0  0
   -7.0451    9.1544   24.7648 C   0  0  0  0  0  0  0  0  0  0  0  0
   -6.9881    8.1096   23.6431 C   0  0  0  0  0  0  0  0  0  0  0  0
   -5.1169    8.9219   26.2161 N   0  0  0  0  0  0  0  0  0  0  0  0
   -4.2990    8.3947   27.1789 C   0  0  0  0  0  0  0  0  0  0  0  0
   -4.7490    7.5343   28.1967 C   0  0  0  0  0  0  0  0  0  0  0  0
   -2.9447    8.7484   27.1344 C   0  0  0  0  0  0  0  0  0  0  0  0
   -2.0572    8.2527   28.0914 C   0  0  0  0  0  0  0  0  0  0  0  0
   -2.5150    7.3913   29.0915 C   0  0  0  0  0  0  0  0  0  0  0  0
   -3.8624    7.0325   29.1547 C   0  0  0  0  0  0  0  0  0  0  0  0
   -4.2779    6.1691   30.1829 C   0  0  0  0  0  0  0  0  0  0  0  0
   -3.3579    5.7262   31.0689 N   0  0  0  0  0  0  0  0  0  0  0  0
   -2.0706    6.0919   30.9814 C   0  0  0  0  0  0  0  0  0  0  0  0
   -1.6442    6.9048   30.0103 N   0  0  0  0  0  0  0  0  0  0  0  0
   -5.5874    5.7961   30.2874 N   0  0  0  0  0  0  0  0  0  0  0  0
   -6.1591    4.9749   31.2089 C   0  0  0  0  0  0  0  0  0  0  0  0
   -5.4425    4.3875   32.2488 C   0  0  0  0  0  0  0  0  0  0  0  0
   -7.5247    4.7216   31.0827 C   0  0  0  0  0  0  0  0  0  0  0  0
   -8.1817    3.8989   31.9989 C   0  0  0  0  0  0  0  0  0  0  0  0
   -7.4618    3.3165   33.0458 C   0  0  0  0  0  0  0  0  0  0  0  0
   -6.0876    3.5549   33.1605 C   0  0  0  0  0  0  0  0  0  0  0  0
  1  2  2  0
  2  3  1  0
  3  4  2  0
  2  5  1  0
  5  6  1  0
  6  7  2  0
  6  8  1  0
  8  9  2  0
  9 10  1  0
  7 11  1  0
 10 11  2  0
 11 12  1  0
 12 13  2  0
 13 14  1  0
 10 15  1  0
 14 15  2  0
 12 16  1  0
 16 17  1  0
 17 18  2  0
 17 19  1  0
 19 20  2  0
 20 21  1  0
 18 22  1  0
 21 22  2  0
M  END
$$$$
