2YIX_YIX_A_1355_
     RDKit          3D

 26 28  0  0  0  0  0  0  0  0999 V2000
    0.0714    3.7053   11.2622 C   0  0  0  0  0  0  0  0  0  0  0  0
    0.5570    2.9792   12.5607 C   0  0  0  0  0  0  0  0  0  0  0  0
   -0.5080    3.1450   13.5475 N   0  0  0  0  0  0  0  0  0  0  0  0
   -0.6172    2.4501   14.7202 C   0  0  0  0  0  0  0  0  0  0  0  0
    0.2021    1.6303   15.0237 O   0  0  0  0  0  0  0  0  0  0  0  0
   -1.6641    2.7115   15.5525 N   0  0  0  0  0  0  0  0  0  0  0  0
   -1.9088    2.0653   16.8474 C   0  0  0  0  0  0  0  0  0  0  0  0
   -3.3633    1.6429   17.1638 C   0  0  0  0  0  0  0  0  0  0  0  0
   -4.3449    1.4458   16.1355 C   0  0  0  0  0  0  0  0  0  0  0  0
   -5.6387    1.0205   16.4798 C   0  0  0  0  0  0  0  0  0  0  0  0
   -5.9705    0.7845   17.8375 C   0  0  0  0  0  0  0  0  0  0  0  0
   -5.0247    0.9651   18.8527 C   0  0  0  0  0  0  0  0  0  0  0  0
   -3.7045    1.3924   18.5329 C   0  0  0  0  0  0  0  0  0  0  0  0
   -2.4449    1.5768   19.8376 S   0  0  0  0  0  0  0  0  0  0  0  0
   -2.2221   -0.1059   20.2853 C   0  0  0  0  0  0  0  0  0  0  0  0
   -2.4435   -1.2031   19.3565 C   0  0  0  0  0  0  0  0  0  0  0  0
   -2.2299   -2.5233   19.7925 C   0  0  0  0  0  0  0  0  0  0  0  0
   -1.8081   -2.7813   21.1655 C   0  0  0  0  0  0  0  0  0  0  0  0
   -1.5415   -3.8951   21.9004 N   0  0  0  0  0  0  0  0  0  0  0  0
   -1.1987   -3.5266   23.0915 N   0  0  0  0  0  0  0  0  0  0  0  0
   -1.2321   -2.2055   23.2179 C   0  0  0  0  0  0  0  0  0  0  0  0
   -0.9008   -1.3443   24.4263 C   0  0  0  0  0  0  0  0  0  0  0  0
   -2.0217   -1.3189   25.4485 C   0  0  0  0  0  0  0  0  0  0  0  0
    0.3286   -1.8325   25.1544 C   0  0  0  0  0  0  0  0  0  0  0  0
   -1.6123   -1.6909   22.0233 N   0  0  0  0  0  0  0  0  0  0  0  0
   -1.7982   -0.3745   21.5891 C   0  0  0  0  0  0  0  0  0  0  0  0
  1  2  1  0
  2  3  1  0
  3  4  1  0
  4  5  2  0
  4  6  1  0
  6  7  1  0
  7  8  1  0
  8  9  2  0
  9 10  1  0
 10 11  2  0
 11 12  1  0
  8 13  1  0
 12 13  2  0
 13 14  1  0
 14 15  1  0
 15 16  1  0
 16 17  2  0
 17 18  1  0
 18 19  2  0
 19 20  1  0
 20 21  2  0
 21 22  1  0
 22 23  1  0
 22 24  1  0
 18 25  1  0
 21 25  1  0
 15 26  2  0
 25 26  1  0
M  END
$$$$
