2YIW_YIW_A_1353_
     RDKit          3D

 39 43  0  0  0  0  0  0  0  0999 V2000
   -2.6770   -1.1470   25.0570 C   0  0  0  0  0  0  0  0  0  0  0  0
   -1.3830   -1.7130   24.5010 C   0  0  0  0  0  0  0  0  0  0  0  0
   -0.9370   -2.6450   25.6400 C   0  0  0  0  0  0  0  0  0  0  0  0
   -1.6540   -2.4960   23.2180 C   0  0  0  0  0  0  0  0  0  0  0  0
   -1.5330   -3.8040   23.0350 N   0  0  0  0  0  0  0  0  0  0  0  0
   -1.8140   -4.1260   21.8200 N   0  0  0  0  0  0  0  0  0  0  0  0
   -2.1250   -3.0540   21.1500 C   0  0  0  0  0  0  0  0  0  0  0  0
   -2.4840   -2.8420   19.8000 C   0  0  0  0  0  0  0  0  0  0  0  0
   -2.7370   -1.5210   19.3970 C   0  0  0  0  0  0  0  0  0  0  0  0
   -2.6330   -0.4500   20.2920 C   0  0  0  0  0  0  0  0  0  0  0  0
   -2.9340    1.2000   19.8170 S   0  0  0  0  0  0  0  0  0  0  0  0
   -4.0860    0.9890   18.4730 C   0  0  0  0  0  0  0  0  0  0  0  0
   -5.3060    0.2330   18.5950 C   0  0  0  0  0  0  0  0  0  0  0  0
   -6.1450    0.0570   17.5230 C   0  0  0  0  0  0  0  0  0  0  0  0
   -5.8020    0.6300   16.3000 C   0  0  0  0  0  0  0  0  0  0  0  0
   -4.6510    1.4270   16.1550 C   0  0  0  0  0  0  0  0  0  0  0  0
   -3.8050    1.5850   17.2370 C   0  0  0  0  0  0  0  0  0  0  0  0
   -2.5320    2.3300   17.0920 C   0  0  0  0  0  0  0  0  0  0  0  0
   -2.3170    3.1240   15.8490 N   0  0  0  0  0  0  0  0  0  0  0  0
   -1.2080    2.8960   15.1390 C   0  0  0  0  0  0  0  0  0  0  0  0
   -0.2930    2.0510   15.4610 O   0  0  0  0  0  0  0  0  0  0  0  0
   -0.9340    3.7040   14.1640 N   0  0  0  0  0  0  0  0  0  0  0  0
    0.1940    3.6330   13.3190 C   0  0  0  0  0  0  0  0  0  0  0  0
    1.0930    2.6260   13.0600 C   0  0  0  0  0  0  0  0  0  0  0  0
    2.0640    3.1380   12.1530 C   0  0  0  0  0  0  0  0  0  0  0  0
    1.7550    4.3570   11.9740 N   0  0  0  0  0  0  0  0  0  0  0  0
    0.5570    4.6740   12.5920 N   0  0  0  0  0  0  0  0  0  0  0  0
    0.0260    5.9980   12.6040 C   0  0  0  0  0  0  0  0  0  0  0  0
   -0.0110    6.7690   11.4050 C   0  0  0  0  0  0  0  0  0  0  0  0
   -0.5200    8.0700   11.4390 C   0  0  0  0  0  0  0  0  0  0  0  0
   -0.9460    8.6100   12.6350 C   0  0  0  0  0  0  0  0  0  0  0  0
   -0.9140    7.8790   13.8190 C   0  0  0  0  0  0  0  0  0  0  0  0
   -0.3960    6.5720   13.7820 C   0  0  0  0  0  0  0  0  0  0  0  0
    3.2540    2.4380   11.5470 C   0  0  0  0  0  0  0  0  0  0  0  0
    2.7650    1.4970   10.4460 C   0  0  0  0  0  0  0  0  0  0  0  0
    4.2970    3.4070   10.9790 C   0  0  0  0  0  0  0  0  0  0  0  0
    3.9230    1.5920   12.5560 C   0  0  0  0  0  0  0  0  0  0  0  0
   -2.2920   -0.6770   21.5810 C   0  0  0  0  0  0  0  0  0  0  0  0
   -2.0250   -1.9860   22.0160 N   0  0  0  0  0  0  0  0  0  0  0  0
  1  2  1  0
  2  3  1  0
  2  4  1  0
  4  5  2  0
  5  6  1  0
  6  7  2  0
  7  8  1  0
  8  9  2  0
  9 10  1  0
 10 11  1  0
 11 12  1  0
 12 13  2  0
 13 14  1  0
 14 15  2  0
 15 16  1  0
 12 17  1  0
 16 17  2  0
 17 18  1  0
 18 19  1  0
 19 20  1  0
 20 21  2  0
 20 22  1  0
 22 23  1  0
 23 24  2  0
 24 25  1  0
 25 26  2  0
 23 27  1  0
 26 27  1  0
 27 28  1  0
 28 29  2  0
 29 30  1  0
 30 31  2  0
 31 32  1  0
 28 33  1  0
 32 33  2  0
 25 34  1  0
 34 35  1  0
 34 36  1  0
 34 37  1  0
 10 38  2  0
  4 39  1  0
  7 39  1  0
 38 39  1  0
M  END
$$$$
