3L5B_BDO_A_1_
     RDKit          3D

 20 21  0  0  0  0  0  0  0  0999 V2000
   20.9387   35.2731   58.0727 C   0  0  0  0  0  0  0  0  0  0  0  0
   21.3671   35.7844   56.8972 N   0  0  0  0  0  0  0  0  0  0  0  0
   21.8445   32.2979   56.7317 O   0  0  0  0  0  0  0  0  0  0  0  0
   21.6152   33.4706   57.0268 C   0  0  0  0  0  0  0  0  0  0  0  0
   21.0959   33.9391   58.1770 N   0  0  0  0  0  0  0  0  0  0  0  0
   21.8894   34.6697   56.1210 C   0  0  0  0  0  0  0  0  0  0  0  0
   20.4161   36.0020   59.0547 N   0  0  0  0  0  0  0  0  0  0  0  0
   21.1474   34.5191   54.7872 C   0  0  0  0  0  0  0  0  0  0  0  0
   23.4196   34.7763   55.9673 C   0  0  0  0  0  0  0  0  0  0  0  0
   20.7921   33.1337   59.3596 C   0  0  0  0  0  0  0  0  0  0  0  0
   22.0560   32.7662   60.1031 C   0  0  0  0  0  0  0  0  0  0  0  0
   22.4316   33.4857   61.2757 C   0  0  0  0  0  0  0  0  0  0  0  0
   23.6430   33.1597   61.9526 C   0  0  0  0  0  0  0  0  0  0  0  0
   24.4767   32.1101   61.4617 C   0  0  0  0  0  0  0  0  0  0  0  0
   24.0960   31.3846   60.2940 C   0  0  0  0  0  0  0  0  0  0  0  0
   22.8847   31.7116   59.6182 C   0  0  0  0  0  0  0  0  0  0  0  0
   18.8190   35.2707   55.4007 C   0  0  0  0  0  0  0  0  0  0  0  0
   19.1546   33.4409   53.6970 C   0  0  0  0  0  0  0  0  0  0  0  0
   19.6837   34.1025   54.9600 C   0  0  0  0  0  0  0  0  0  0  0  0
   25.1062   30.1091   59.6863 Cl  0  0  0  0  0  0  0  0  0  0  0  0
  1  2  1  0
  3  4  2  0
  1  5  1  0
  4  5  1  0
  2  6  1  0
  4  6  1  0
  1  7  2  0
  6  8  1  0
  6  9  1  0
  5 10  1  0
 10 11  1  0
 11 12  2  0
 12 13  1  0
 13 14  2  0
 14 15  1  0
 11 16  1  0
 15 16  2  0
  8 19  1  0
 17 19  1  0
 18 19  1  0
 15 20  1  0
M  END
$$$$
