2VTL_LZ5_A_1299_
     RDKit          3D

 14 15  0  0  0  0  0  0  0  0999 V2000
   27.7885    7.1555   63.8785 O   0  0  0  0  0  0  0  0  0  0  0  0
   28.2241    6.1842   64.4256 C   0  0  0  0  0  0  0  0  0  0  0  0
   29.3714    6.1968   65.1301 N   0  0  0  0  0  0  0  0  0  0  0  0
   30.3044    7.2392   65.1851 C   0  0  0  0  0  0  0  0  0  0  0  0
   30.5941    7.9905   64.0453 C   0  0  0  0  0  0  0  0  0  0  0  0
   31.5129    9.0201   64.1061 C   0  0  0  0  0  0  0  0  0  0  0  0
   32.1541    9.3031   65.2969 C   0  0  0  0  0  0  0  0  0  0  0  0
   31.8745    8.5636   66.4288 C   0  0  0  0  0  0  0  0  0  0  0  0
   30.9616    7.5331   66.3761 C   0  0  0  0  0  0  0  0  0  0  0  0
   27.5440    4.8884   64.3141 C   0  0  0  0  0  0  0  0  0  0  0  0
   26.4071    4.5976   63.5710 C   0  0  0  0  0  0  0  0  0  0  0  0
   26.1826    3.2824   63.7714 C   0  0  0  0  0  0  0  0  0  0  0  0
   27.1572    2.8388   64.5842 N   0  0  0  0  0  0  0  0  0  0  0  0
   28.0179    3.8311   64.9192 N   0  0  0  0  0  0  0  0  0  0  0  0
  1  2  2  0
  2  3  1  0
  3  4  1  0
  4  5  2  0
  5  6  1  0
  6  7  2  0
  7  8  1  0
  4  9  1  0
  8  9  2  0
  2 10  1  0
 10 11  1  0
 11 12  2  0
 12 13  1  0
 10 14  2  0
 13 14  1  0
M  END
$$$$
