2CER_PGI_B_1490_AB
     RDKit          3D

 22 24  0  0  0  0  0  0  0  0999 V2000
   47.2100  -41.8170   15.1200 O   0  0  0  0  0  0  0  0  0  0  0  0
   46.2990  -40.7260   15.2290 C   0  0  0  0  0  0  0  0  0  0  0  0
   47.0440  -39.4240   15.5030 C   0  0  0  0  0  0  0  0  0  0  0  0
   47.8470  -38.8720   14.3180 C   0  0  0  0  0  0  0  0  0  0  0  0
   47.0360  -38.9180   13.1300 O   0  0  0  0  0  0  0  0  0  0  0  0
   48.3100  -37.4470   14.7020 C   0  0  0  0  0  0  0  0  0  0  0  0
   48.9800  -36.7900   13.6110 O   0  0  0  0  0  0  0  0  0  0  0  0
   49.3070  -37.5140   15.8660 C   0  0  0  0  0  0  0  0  0  0  0  0
   49.3730  -36.2770   16.5730 O   0  0  0  0  0  0  0  0  0  0  0  0
   48.0100  -39.5180   16.6310 N   0  0  0  0  0  0  0  0  0  0  0  0
   48.0650  -40.4280   17.6190 C   0  0  0  0  0  0  0  0  0  0  0  0
   49.1340  -40.1030   18.4270 C   0  0  0  0  0  0  0  0  0  0  0  0
   49.7010  -39.0150   17.8740 N   0  0  0  0  0  0  0  0  0  0  0  0
   49.0110  -38.6520   16.7860 C   0  0  0  0  0  0  0  0  0  0  0  0
   49.5840  -40.8630   19.6590 C   0  0  0  0  0  0  0  0  0  0  0  0
   51.0540  -41.2730   19.5790 C   0  0  0  0  0  0  0  0  0  0  0  0
   51.6360  -41.6720   20.9230 C   0  0  0  0  0  0  0  0  0  0  0  0
   52.8850  -42.3200   20.9530 C   0  0  0  0  0  0  0  0  0  0  0  0
   53.4630  -42.7040   22.1640 C   0  0  0  0  0  0  0  0  0  0  0  0
   50.9680  -41.4100   22.1170 C   0  0  0  0  0  0  0  0  0  0  0  0
   51.5530  -41.7880   23.3220 C   0  0  0  0  0  0  0  0  0  0  0  0
   52.7830  -42.4330   23.3540 C   0  0  0  0  0  0  0  0  0  0  0  0
  1  2  1  0
  2  3  1  0
  3  4  1  0
  4  5  1  0
  4  6  1  0
  6  7  1  0
  6  8  1  0
  8  9  1  0
  3 10  1  0
 10 11  1  0
 11 12  2  0
 12 13  1  0
  8 14  1  0
 10 14  2  0
 13 14  1  0
 12 15  1  0
 15 16  1  0
 16 17  1  0
 17 18  2  0
 18 19  1  0
 17 20  1  0
 20 21  2  0
 19 22  2  0
 21 22  1  0
M  CHG  1  10   1
M  END
$$$$
