1C5P_BEN_A_246_
     RDKit          3D

 18 18  0  1  0  0  0  0  0  0999 V2000
   44.0468   -3.1592   26.3033 C   0  0  0  0  0  0  0  0  0  0  0  0
   43.3206   -3.7210   27.3686 C   0  0  0  0  0  0  0  0  0  0  0  0
   43.1363   -3.0419   28.5742 C   0  0  0  0  0  0  0  0  0  0  0  0
   43.6735   -1.7725   28.7387 C   0  0  0  0  0  0  0  0  0  0  0  0
   44.3960   -1.1828   27.7014 C   0  0  0  0  0  0  0  0  0  0  0  0
   44.5777   -1.8633   26.5046 C   0  0  0  0  0  0  0  0  0  0  0  0
   44.2228   -3.8566   25.1080 C   0  0  0  0  0  0  0  0  0  0  0  0
   44.1467   -5.1527   25.1094 N   0  0  0  0  0  0  0  0  0  0  0  0
   42.8930   -4.7059   27.2614 H   0  0  0  0  0  0  0  0  0  0  0  0
   42.5768   -3.5007   29.3748 H   0  0  0  0  0  0  0  0  0  0  0  0
   43.5359   -1.2475   29.6665 H   0  0  0  0  0  0  0  0  0  0  0  0
   44.8147   -0.1925   27.8228 H   0  0  0  0  0  0  0  0  0  0  0  0
   45.1431   -1.3806   25.7211 H   0  0  0  0  0  0  0  0  0  0  0  0
   44.5906   -2.1881   24.0553 H   0  0  0  0  0  0  0  0  0  0  0  0
   43.9913   -5.6241   25.9846 H   0  0  0  0  0  0  0  0  0  0  0  0
   44.1324   -5.7177   24.2900 H   0  0  0  0  0  0  0  0  0  0  0  0
   44.6007   -3.6389   23.1422 H   0  0  0  0  0  0  0  0  0  0  0  0
   44.4787   -3.1961   24.0194 N   0  0  0  0  0  0  0  0  0  0  0  0
  1  2  2  0
  2  3  1  0
  3  4  2  0
  4  5  1  0
  1  6  1  0
  5  6  2  0
  1  7  1  0
  7  8  1  0
  2  9  1  0
  3 10  1  0
  4 11  1  0
  5 12  1  0
  6 13  1  0
  8 15  1  0
  8 16  1  0
 18  7  2  0
 18 14  1  0
 18 17  1  0
M  CHG  1  18   1
V   18 [N&+]
M  STY  1   1 DAT
M  SAL   1  1  18
M  SED   1 [N&+]
M  END
$$$$
