2VIN_505_A_1247_
     RDKit          3D

 13 13  0  0  0  0  0  0  0  0999 V2000
   31.5273    3.7729   28.0310 C   0  0  0  0  0  0  0  0  0  0  0  0
   32.6135    4.7471   27.5966 C   0  0  0  0  0  0  0  0  0  0  0  0
   32.9973    4.3648   26.1959 N   0  0  0  0  0  0  0  0  0  0  0  0
   32.1223    6.1923   27.6510 C   0  0  0  0  0  0  0  0  0  0  0  0
   30.9191    6.3146   26.8400 O   0  0  0  0  0  0  0  0  0  0  0  0
   30.0788    7.3705   27.0959 C   0  0  0  0  0  0  0  0  0  0  0  0
   28.8999    7.1569   27.8389 C   0  0  0  0  0  0  0  0  0  0  0  0
   28.5580    5.7877   28.3647 C   0  0  0  0  0  0  0  0  0  0  0  0
   28.0625    8.2337   28.0877 C   0  0  0  0  0  0  0  0  0  0  0  0
   28.3681    9.4911   27.6058 C   0  0  0  0  0  0  0  0  0  0  0  0
   29.5200    9.7016   26.8730 C   0  0  0  0  0  0  0  0  0  0  0  0
   30.3913    8.6538   26.6078 C   0  0  0  0  0  0  0  0  0  0  0  0
   31.6488    8.8924   25.8112 C   0  0  0  0  0  0  0  0  0  0  0  0
  1  2  1  0
  2  3  1  0
  2  4  1  0
  4  5  1  0
  5  6  1  0
  6  7  2  0
  7  8  1  0
  7  9  1  0
  9 10  2  0
 10 11  1  0
  6 12  1  0
 11 12  2  0
 12 13  1  0
M  END
$$$$
