2VIW_D56_A_1246_
     RDKit          3D

 31 33  0  0  0  0  0  0  0  0999 V2000
   22.3980   12.5370   29.2640 N   0  0  0  0  0  0  0  0  0  0  0  0
   21.6380   13.7920   29.2710 C   0  0  0  0  0  0  0  0  0  0  0  0
   20.5380   13.7550   28.2210 C   0  0  0  0  0  0  0  0  0  0  0  0
   19.6090   12.5740   28.4470 C   0  0  0  0  0  0  0  0  0  0  0  0
   20.3980   11.2830   28.5750 C   0  0  0  0  0  0  0  0  0  0  0  0
   21.5070   11.4220   29.6070 C   0  0  0  0  0  0  0  0  0  0  0  0
   23.6920   12.4940   29.8640 C   0  0  0  0  0  0  0  0  0  0  0  0
   23.9320   13.1210   31.0800 C   0  0  0  0  0  0  0  0  0  0  0  0
   25.1860   13.0570   31.6720 C   0  0  0  0  0  0  0  0  0  0  0  0
   25.4520   13.8390   33.1940 Cl  0  0  0  0  0  0  0  0  0  0  0  0
   26.2190   12.3390   31.0560 C   0  0  0  0  0  0  0  0  0  0  0  0
   25.9880   11.7180   29.8320 C   0  0  0  0  0  0  0  0  0  0  0  0
   27.0480   11.0010   29.2510 N   0  0  0  0  0  0  0  0  0  0  0  0
   27.2980   10.8090   27.9530 C   0  0  0  0  0  0  0  0  0  0  0  0
   26.7970   11.4760   27.0800 O   0  0  0  0  0  0  0  0  0  0  0  0
   28.2220    9.6830   27.6380 C   0  0  0  0  0  0  0  0  0  0  0  0
   27.9790    8.4350   28.2040 C   0  0  0  0  0  0  0  0  0  0  0  0
   28.7950    7.3490   27.9200 C   0  0  0  0  0  0  0  0  0  0  0  0
   29.6670   13.2840   31.9400 C   0  0  0  0  0  0  0  0  0  0  0  0
   28.5230    6.0020   28.5350 C   0  0  0  0  0  0  0  0  0  0  0  0
   29.8760    7.5340   27.0490 C   0  0  0  0  0  0  0  0  0  0  0  0
   30.7020    6.4720   26.7840 O   0  0  0  0  0  0  0  0  0  0  0  0
   31.6910    6.1440   27.7720 C   0  0  0  0  0  0  0  0  0  0  0  0
   31.8350    4.6350   27.8070 C   0  0  0  0  0  0  0  0  0  0  0  0
   33.1180    4.2180   27.1750 N   0  0  0  0  0  0  0  0  0  0  0  0
   30.1380    8.7930   26.4730 C   0  0  0  0  0  0  0  0  0  0  0  0
   31.3080    8.9850   25.5460 C   0  0  0  0  0  0  0  0  0  0  0  0
   29.2980    9.8570   26.7760 C   0  0  0  0  0  0  0  0  0  0  0  0
   24.7260   11.7880   29.2590 C   0  0  0  0  0  0  0  0  0  0  0  0
   27.4860   12.2800   31.5860 O   0  0  0  0  0  0  0  0  0  0  0  0
   28.4710   13.2160   31.0450 C   0  0  0  0  0  0  0  0  0  0  0  0
  1  2  1  0
  2  3  1  0
  3  4  1  0
  4  5  1  0
  1  6  1  0
  5  6  1  0
  1  7  1  0
  7  8  2  0
  8  9  1  0
  9 10  1  0
  9 11  2  0
 11 12  1  0
 12 13  1  0
 13 14  1  0
 14 15  2  0
 14 16  1  0
 16 17  2  0
 17 18  1  0
 18 20  1  0
 18 21  2  0
 21 22  1  0
 22 23  1  0
 23 24  1  0
 24 25  1  0
 21 26  1  0
 26 27  1  0
 16 28  1  0
 26 28  2  0
  7 29  1  0
 12 29  2  0
 11 30  1  0
 19 31  1  0
 30 31  1  0
M  END
$$$$
