3L5D_BDV_B_455_
     RDKit          3D

 28 29  0  0  0  0  0  0  0  0999 V2000
   22.5442   34.7337   56.0329 C   0  0  0  0  0  0  0  0  0  0  0  0
   21.9799   35.8525   56.7705 N   0  0  0  0  0  0  0  0  0  0  0  0
   22.6501   32.3885   56.7608 O   0  0  0  0  0  0  0  0  0  0  0  0
   21.5185   35.3567   57.9424 C   0  0  0  0  0  0  0  0  0  0  0  0
   21.7083   34.0291   58.0846 N   0  0  0  0  0  0  0  0  0  0  0  0
   14.7689   31.0404   58.9442 O   0  0  0  0  0  0  0  0  0  0  0  0
   22.3191   33.5551   56.9856 C   0  0  0  0  0  0  0  0  0  0  0  0
   20.9275   36.0975   58.8813 N   0  0  0  0  0  0  0  0  0  0  0  0
   24.0652   34.8939   55.8512 C   0  0  0  0  0  0  0  0  0  0  0  0
   15.8028   30.3924   57.0417 N   0  0  0  0  0  0  0  0  0  0  0  0
   21.8089   34.5066   54.7053 C   0  0  0  0  0  0  0  0  0  0  0  0
   13.9239   31.6766   56.9479 N   0  0  0  0  0  0  0  0  0  0  0  0
   20.3413   34.1086   54.8782 C   0  0  0  0  0  0  0  0  0  0  0  0
   19.8056   33.3798   53.6463 C   0  0  0  0  0  0  0  0  0  0  0  0
   19.4612   35.2995   55.2525 C   0  0  0  0  0  0  0  0  0  0  0  0
   21.3104   33.2184   59.2379 C   0  0  0  0  0  0  0  0  0  0  0  0
   20.1601   32.2954   58.8835 C   0  0  0  0  0  0  0  0  0  0  0  0
   20.2289   30.9027   59.1876 C   0  0  0  0  0  0  0  0  0  0  0  0
   19.1345   30.0438   58.8462 C   0  0  0  0  0  0  0  0  0  0  0  0
   17.9753   30.5816   58.2017 C   0  0  0  0  0  0  0  0  0  0  0  0
   17.9156   31.9733   57.9005 C   0  0  0  0  0  0  0  0  0  0  0  0
   19.0020   32.8242   58.2409 C   0  0  0  0  0  0  0  0  0  0  0  0
   16.8120   29.6826   57.8342 C   0  0  0  0  0  0  0  0  0  0  0  0
   14.0794   31.6187   55.4961 C   0  0  0  0  0  0  0  0  0  0  0  0
   14.8211   32.8444   54.9839 C   0  0  0  0  0  0  0  0  0  0  0  0
   14.0838   34.1326   55.3261 C   0  0  0  0  0  0  0  0  0  0  0  0
   14.8261   31.0365   57.7183 C   0  0  0  0  0  0  0  0  0  0  0  0
   14.8803   35.3714   54.9470 C   0  0  0  0  0  0  0  0  0  0  0  0
  1  2  1  0
  2  4  1  0
  4  5  1  0
  1  7  1  0
  3  7  2  0
  5  7  1  0
  4  8  2  0
  1  9  1  0
  1 11  1  0
 11 13  1  0
 13 14  1  0
 13 15  1  0
  5 16  1  0
 16 17  1  0
 17 18  2  0
 18 19  1  0
 19 20  2  0
 20 21  1  0
 17 22  1  0
 21 22  2  0
 10 23  1  0
 20 23  1  0
 12 24  1  0
 24 25  1  0
 25 26  1  0
  6 27  2  0
 10 27  1  0
 12 27  1  0
 26 28  1  0
M  END
$$$$
