2VOT_NHV_B_1868_
     RDKit          3D

 22 24  0  0  0  0  0  0  0  0999 V2000
  -17.7030   61.4480   48.2840 O   0  0  0  0  0  0  0  0  0  0  0  0
  -16.6930   60.5750   47.7270 C   0  0  0  0  0  0  0  0  0  0  0  0
  -17.1680   59.1340   47.6670 C   0  0  0  0  0  0  0  0  0  0  0  0
  -18.1940   58.8710   46.5160 C   0  0  0  0  0  0  0  0  0  0  0  0
  -17.6210   59.4140   45.2970 O   0  0  0  0  0  0  0  0  0  0  0  0
  -18.5920   57.3570   46.4090 C   0  0  0  0  0  0  0  0  0  0  0  0
  -19.9990   57.3080   46.1630 O   0  0  0  0  0  0  0  0  0  0  0  0
  -18.9470   55.2860   47.9070 O   0  0  0  0  0  0  0  0  0  0  0  0
  -17.7790   58.6220   48.9340 N   0  0  0  0  0  0  0  0  0  0  0  0
  -18.1600   59.2510   50.0460 C   0  0  0  0  0  0  0  0  0  0  0  0
  -18.9080   58.3410   50.7780 C   0  0  0  0  0  0  0  0  0  0  0  0
  -18.9500   57.1570   50.0760 N   0  0  0  0  0  0  0  0  0  0  0  0
  -18.3510   57.4110   48.9040 C   0  0  0  0  0  0  0  0  0  0  0  0
  -19.4500   58.5880   52.1640 C   0  0  0  0  0  0  0  0  0  0  0  0
  -20.8940   58.8430   52.1170 N   0  0  0  0  0  0  0  0  0  0  0  0
  -21.4050   60.0770   51.7290 C   0  0  0  0  0  0  0  0  0  0  0  0
  -20.5870   61.2220   51.5930 C   0  0  0  0  0  0  0  0  0  0  0  0
  -21.1360   62.4500   51.2000 C   0  0  0  0  0  0  0  0  0  0  0  0
  -22.5080   62.5620   50.9380 C   0  0  0  0  0  0  0  0  0  0  0  0
  -23.3310   61.4470   51.0580 C   0  0  0  0  0  0  0  0  0  0  0  0
  -22.7740   60.2260   51.4560 C   0  0  0  0  0  0  0  0  0  0  0  0
  -18.2390   56.5250   47.6620 C   0  0  0  0  0  0  0  0  0  0  0  0
  1  2  1  0
  2  3  1  0
  3  4  1  0
  4  5  1  0
  4  6  1  0
  6  7  1  0
  3  9  1  0
  9 10  1  0
 10 11  2  0
 11 12  1  0
  9 13  2  0
 12 13  1  0
 11 14  1  0
 14 15  1  0
 15 16  1  0
 16 17  2  0
 17 18  1  0
 18 19  2  0
 19 20  1  0
 16 21  1  0
 20 21  2  0
  6 22  1  0
  8 22  1  0
 13 22  1  0
M  CHG  1   9   1
M  END
$$$$
