2YIS_YIS_A_1353_
     RDKit          3D

 48 53  0  0  0  0  0  0  0  0999 V2000
    2.8970    1.4920   10.6400 C   0  0  0  0  0  0  0  0  0  0  0  0
    3.4050    2.4620   11.7260 C   0  0  0  0  0  0  0  0  0  0  0  0
    4.1840    1.6750   12.7640 C   0  0  0  0  0  0  0  0  0  0  0  0
    4.3610    3.4680   11.0190 C   0  0  0  0  0  0  0  0  0  0  0  0
    2.2060    3.1680   12.3750 C   0  0  0  0  0  0  0  0  0  0  0  0
    1.2600    2.7070   13.3310 C   0  0  0  0  0  0  0  0  0  0  0  0
    0.3640    3.7380   13.5830 C   0  0  0  0  0  0  0  0  0  0  0  0
   -0.7110    3.7980   14.4690 N   0  0  0  0  0  0  0  0  0  0  0  0
   -1.0660    2.9900   15.4640 C   0  0  0  0  0  0  0  0  0  0  0  0
   -0.2830    2.0660   15.8190 O   0  0  0  0  0  0  0  0  0  0  0  0
   -2.1990    3.2950   16.1560 N   0  0  0  0  0  0  0  0  0  0  0  0
   -2.5530    2.4960   17.3140 C   0  0  0  0  0  0  0  0  0  0  0  0
   -3.7870    1.6260   17.3140 C   0  0  0  0  0  0  0  0  0  0  0  0
   -4.5910    1.4220   16.2060 C   0  0  0  0  0  0  0  0  0  0  0  0
   -5.7190    0.5920   16.2960 C   0  0  0  0  0  0  0  0  0  0  0  0
   -6.0550   -0.0260   17.5210 C   0  0  0  0  0  0  0  0  0  0  0  0
   -5.2400    0.1610   18.6240 C   0  0  0  0  0  0  0  0  0  0  0  0
   -4.0760    0.9950   18.5420 C   0  0  0  0  0  0  0  0  0  0  0  0
   -2.9680    1.2780   19.9460 S   0  0  0  0  0  0  0  0  0  0  0  0
   -2.6680   -0.3900   20.5020 C   0  0  0  0  0  0  0  0  0  0  0  0
   -2.6440   -1.4410   19.5470 C   0  0  0  0  0  0  0  0  0  0  0  0
   -2.4300   -2.7530   19.8980 C   0  0  0  0  0  0  0  0  0  0  0  0
   -2.1780   -3.0740   21.2610 C   0  0  0  0  0  0  0  0  0  0  0  0
   -1.9040   -4.2080   21.8790 N   0  0  0  0  0  0  0  0  0  0  0  0
   -1.7110   -3.9890   23.1080 N   0  0  0  0  0  0  0  0  0  0  0  0
   -1.9040   -2.7130   23.3700 C   0  0  0  0  0  0  0  0  0  0  0  0
   -1.7290   -2.0720   24.6990 C   0  0  0  0  0  0  0  0  0  0  0  0
   -2.6580   -2.2240   25.7710 C   0  0  0  0  0  0  0  0  0  0  0  0
   -2.4000   -1.5810   26.9890 C   0  0  0  0  0  0  0  0  0  0  0  0
   -1.2480   -0.8060   27.1640 C   0  0  0  0  0  0  0  0  0  0  0  0
   -0.3210   -0.6460   26.1400 C   0  0  0  0  0  0  0  0  0  0  0  0
   -0.5350   -1.2760   24.8830 C   0  0  0  0  0  0  0  0  0  0  0  0
    0.6400   -1.0840   23.5380 S   0  0  0  0  0  0  0  0  0  0  0  0
    1.3680    0.5570   23.6560 C   0  0  0  0  0  0  0  0  0  0  0  0
    0.4020    1.5860   23.0500 C   0  0  0  0  0  0  0  0  0  0  0  0
   -0.9290    1.5290   23.6360 O   0  0  0  0  0  0  0  0  0  0  0  0
   -2.1900   -2.0650   22.2040 N   0  0  0  0  0  0  0  0  0  0  0  0
   -2.4600   -0.7160   21.8290 C   0  0  0  0  0  0  0  0  0  0  0  0
    0.7060    4.7750   12.7870 N   0  0  0  0  0  0  0  0  0  0  0  0
    1.8640    4.3990   12.1040 N   0  0  0  0  0  0  0  0  0  0  0  0
    0.1960    6.1190   12.7400 C   0  0  0  0  0  0  0  0  0  0  0  0
    0.2300    6.9360   11.5670 C   0  0  0  0  0  0  0  0  0  0  0  0
   -0.2540    8.2530   11.5910 C   0  0  0  0  0  0  0  0  0  0  0  0
   -0.7340    8.7630   12.8280 C   0  0  0  0  0  0  0  0  0  0  0  0
   -1.2020   10.0240   12.9220 O   0  0  0  0  0  0  0  0  0  0  0  0
   -0.7390    7.9740   13.9890 C   0  0  0  0  0  0  0  0  0  0  0  0
   -1.3210    8.5620   15.4940 Cl  0  0  0  0  0  0  0  0  0  0  0  0
   -0.2620    6.6780   13.9490 C   0  0  0  0  0  0  0  0  0  0  0  0
  1  2  1  0
  2  3  1  0
  2  4  1  0
  2  5  1  0
  5  6  1  0
  6  7  2  0
  7  8  1  0
  8  9  1  0
  9 10  2  0
  9 11  1  0
 11 12  1  0
 12 13  1  0
 13 14  2  0
 14 15  1  0
 15 16  2  0
 16 17  1  0
 13 18  1  0
 17 18  2  0
 18 19  1  0
 19 20  1  0
 20 21  1  0
 21 22  2  0
 22 23  1  0
 23 24  2  0
 24 25  1  0
 25 26  2  0
 26 27  1  0
 27 28  2  0
 28 29  1  0
 29 30  2  0
 30 31  1  0
 27 32  1  0
 31 32  2  0
 32 33  1  0
 33 34  1  0
 34 35  1  0
 35 36  1  0
 23 37  1  0
 26 37  1  0
 20 38  2  0
 37 38  1  0
  7 39  1  0
  5 40  2  0
 39 40  1  0
 39 41  1  0
 41 42  2  0
 42 43  1  0
 43 44  2  0
 44 45  1  0
 44 46  1  0
 46 47  1  0
 41 48  1  0
 46 48  2  0
M  END
$$$$
