3D8W_D8W_A_301_
     RDKit          3D

 19 20  0  0  0  0  0  0  0  0999 V2000
   -3.5605    7.2127   14.7729 C   0  0  0  0  0  0  0  0  0  0  0  0
   -2.4575    7.9968   15.0998 C   0  0  0  0  0  0  0  0  0  0  0  0
   -1.6778    8.5069   14.0643 C   0  0  0  0  0  0  0  0  0  0  0  0
   -1.9739    8.2678   12.7260 C   0  0  0  0  0  0  0  0  0  0  0  0
   -3.0761    7.4697   12.3992 C   0  0  0  0  0  0  0  0  0  0  0  0
   -3.8288    6.9494   13.4387 C   0  0  0  0  0  0  0  0  0  0  0  0
   -5.1368    6.0701   13.0901 S   0  0  0  0  0  0  0  0  0  0  0  0
   -6.0547    6.3075   14.1894 O   0  0  0  0  0  0  0  0  0  0  0  0
   -5.7353    6.5549   11.8197 O   0  0  0  0  0  0  0  0  0  0  0  0
   -4.6053    4.6706   12.8651 N   0  0  0  0  0  0  0  0  0  0  0  0
   -4.6388    3.6163   13.7210 C   0  0  0  0  0  0  0  0  0  0  0  0
   -5.7754    3.4561   14.9865 S   0  0  0  0  0  0  0  0  0  0  0  0
   -3.7731    2.5763   13.6540 N   0  0  0  0  0  0  0  0  0  0  0  0
   -4.0298    1.6224   14.6757 N   0  0  0  0  0  0  0  0  0  0  0  0
   -5.0689    1.9490   15.4637 C   0  0  0  0  0  0  0  0  0  0  0  0
   -5.7853    0.9235   16.5666 S   0  0  0  0  0  0  0  0  0  0  0  0
   -5.2185    1.2401   17.8438 O   0  0  0  0  0  0  0  0  0  0  0  0
   -7.1720    1.1809   16.5228 O   0  0  0  0  0  0  0  0  0  0  0  0
   -5.4156   -0.5630   16.1638 N   0  0  0  0  0  0  0  0  0  0  0  0
  1  2  2  0
  2  3  1  0
  3  4  2  0
  4  5  1  0
  1  6  1  0
  5  6  2  0
  6  7  1  0
  7  8  2  0
  7  9  2  0
  7 10  1  0
 10 11  1  0
 11 12  1  0
 11 13  2  0
 13 14  1  0
 12 15  1  0
 14 15  2  0
 15 16  1  0
 16 17  2  0
 16 18  2  0
 16 19  1  0
M  END
$$$$
