1S38_MAQ_A_900_
     RDKit          3D

 13 14  0  0  0  0  0  0  0  0999 V2000
   17.3728   16.8453   18.7629 C   0  0  0  0  0  0  0  0  0  0  0  0
   16.3194   16.5584   19.6930 C   0  0  0  0  0  0  0  0  0  0  0  0
   14.9466   15.9900   19.2568 C   0  0  0  0  0  0  0  0  0  0  0  0
   16.5453   16.8132   21.1061 C   0  0  0  0  0  0  0  0  0  0  0  0
   15.5627   16.5583   22.0589 N   0  0  0  0  0  0  0  0  0  0  0  0
   15.7260   16.7760   23.3484 C   0  0  0  0  0  0  0  0  0  0  0  0
   14.7338   16.5049   24.1721 N   0  0  0  0  0  0  0  0  0  0  0  0
   16.8811   17.2717   23.8403 N   0  0  0  0  0  0  0  0  0  0  0  0
   17.9358   17.5727   23.0643 C   0  0  0  0  0  0  0  0  0  0  0  0
   18.9946   18.0244   23.4951 O   0  0  0  0  0  0  0  0  0  0  0  0
   17.8222   17.3447   21.5382 C   0  0  0  0  0  0  0  0  0  0  0  0
   18.8577   17.6225   20.5900 C   0  0  0  0  0  0  0  0  0  0  0  0
   18.6366   17.3728   19.1949 C   0  0  0  0  0  0  0  0  0  0  0  0
  1  2  2  0
  2  3  1  0
  2  4  1  0
  4  5  1  0
  5  6  1  0
  6  7  1  0
  6  8  2  0
  8  9  1  0
  9 10  2  0
  4 11  2  0
  9 11  1  0
 11 12  1  0
  1 13  1  0
 12 13  2  0
M  END
$$$$
