4EH4_0OL_A_402_
     RDKit          3D

 14 15  0  0  0  0  0  0  0  0999 V2000
   20.0301    0.5941  -22.0204 C   0  0  0  0  0  0  0  0  0  0  0  0
   19.2324    1.1173  -23.2515 C   0  0  0  0  0  0  0  0  0  0  0  0
   19.9896    0.9871  -24.5892 C   0  0  0  0  0  0  0  0  0  0  0  0
   20.3482   -0.4884  -24.8227 C   0  0  0  0  0  0  0  0  0  0  0  0
   21.1861   -1.1105  -23.6635 C   0  0  0  0  0  0  0  0  0  0  0  0
   20.8864   -0.6440  -22.2589 N   0  0  0  0  0  0  0  0  0  0  0  0
   21.4310   -1.2982  -21.1552 C   0  0  0  0  0  0  0  0  0  0  0  0
   21.1404   -0.9096  -20.0210 O   0  0  0  0  0  0  0  0  0  0  0  0
   22.3312   -2.5595  -21.2322 C   0  0  0  0  0  0  0  0  0  0  0  0
   21.8457   -3.7913  -20.7779 C   0  0  0  0  0  0  0  0  0  0  0  0
   22.6429   -4.9452  -20.8694 C   0  0  0  0  0  0  0  0  0  0  0  0
   23.9338   -4.8929  -21.3898 C   0  0  0  0  0  0  0  0  0  0  0  0
   24.4205   -3.6617  -21.8247 C   0  0  0  0  0  0  0  0  0  0  0  0
   23.6390   -2.4985  -21.7358 C   0  0  0  0  0  0  0  0  0  0  0  0
  1  2  1  0
  2  3  1  0
  3  4  1  0
  4  5  1  0
  5  6  1  0
  1  6  1  0
  6  7  1  0
  7  8  2  0
  7  9  1  0
  9 10  2  0
 10 11  1  0
 11 12  2  0
 12 13  1  0
 13 14  2  0
  9 14  1  0
M  END
$$$$
