2OHM_8AP_A_389_
     RDKit          3D

 15 16  0  0  0  0  0  0  0  0999 V2000
   65.9994   48.8814    6.1768 N   0  0  0  0  0  0  0  0  0  0  0  0
   66.6039   48.1018    7.1631 C   0  0  0  0  0  0  0  0  0  0  0  0
   66.3607   46.7952    7.1941 N   0  0  0  0  0  0  0  0  0  0  0  0
   66.8976   45.9800    8.0941 C   0  0  0  0  0  0  0  0  0  0  0  0
   67.7601   46.4728    9.0609 C   0  0  0  0  0  0  0  0  0  0  0  0
   68.0475   47.8316    9.0747 C   0  0  0  0  0  0  0  0  0  0  0  0
   67.4531   48.6668    8.1257 C   0  0  0  0  0  0  0  0  0  0  0  0
   67.7474   50.0366    8.1204 N   0  0  0  0  0  0  0  0  0  0  0  0
   68.9480   50.5166    8.8233 C   0  0  0  0  0  0  0  0  0  0  0  0
   70.2222   50.0003    8.1759 C   0  0  0  0  0  0  0  0  0  0  0  0
   70.1929   49.2347    7.0071 C   0  0  0  0  0  0  0  0  0  0  0  0
   71.3667   48.7760    6.4276 C   0  0  0  0  0  0  0  0  0  0  0  0
   72.5838   49.0857    7.0158 C   0  0  0  0  0  0  0  0  0  0  0  0
   72.6179   49.8483    8.1776 C   0  0  0  0  0  0  0  0  0  0  0  0
   71.4421   50.3030    8.7601 C   0  0  0  0  0  0  0  0  0  0  0  0
  1  2  1  0
  2  3  2  0
  3  4  1  0
  4  5  2  0
  5  6  1  0
  2  7  1  0
  6  7  2  0
  7  8  1  0
  8  9  1  0
  9 10  1  0
 10 11  2  0
 11 12  1  0
 12 13  2  0
 13 14  1  0
 10 15  1  0
 14 15  2  0
M  END
$$$$
