3BLS_APB_B_362_
     RDKit          3D

 10 10  0  0  0  0  0  0  0  0999 V2000
   26.6487    5.1146   16.9079 B   0  0  0  0  0  0  0  0  0  0  0  0
   25.6160    3.9411   16.5649 O   0  0  0  0  0  0  0  0  0  0  0  0
   26.3647    6.4634   15.9603 O   0  0  0  0  0  0  0  0  0  0  0  0
   26.3182    5.4760   18.5503 C   0  0  0  0  0  0  0  0  0  0  0  0
   25.1696    4.9402   19.1485 C   0  0  0  0  0  0  0  0  0  0  0  0
   24.8007    5.2395   20.4658 C   0  0  0  0  0  0  0  0  0  0  0  0
   25.6025    6.1279   21.1834 C   0  0  0  0  0  0  0  0  0  0  0  0
   26.7322    6.6960   20.5935 C   0  0  0  0  0  0  0  0  0  0  0  0
   27.0820    6.3863   19.2780 C   0  0  0  0  0  0  0  0  0  0  0  0
   23.6677    4.6913   21.0414 N   0  0  0  0  0  0  0  0  0  0  0  0
  1  2  1  0
  1  3  1  0
  1  4  1  0
  4  5  2  0
  5  6  1  0
  6  7  2  0
  7  8  1  0
  4  9  1  0
  8  9  2  0
  6 10  1  0
M  END
$$$$
