1P1Q_AMQ_C_601_
     RDKit          3D

 13 13  0  0  0  0  0  0  0  0999 V2000
    9.2137   24.1981   19.3459 N   0  0  0  0  0  0  0  0  0  0  0  0
    7.7370   23.9515   19.3399 C   0  0  0  0  0  0  0  0  0  0  0  0
    7.2527   23.8738   17.8423 C   0  0  0  0  0  0  0  0  0  0  0  0
    6.0116   23.7823   17.6337 O   0  0  0  0  0  0  0  0  0  0  0  0
    8.1466   23.8405   16.9488 O   0  0  0  0  0  0  0  0  0  0  0  0
    7.0155   25.0823   20.1147 C   0  0  0  0  0  0  0  0  0  0  0  0
    7.4043   25.1653   21.5637 C   0  0  0  0  0  0  0  0  0  0  0  0
    6.8025   24.5177   22.6772 C   0  0  0  0  0  0  0  0  0  0  0  0
    8.4526   25.7780   22.1780 C   0  0  0  0  0  0  0  0  0  0  0  0
    9.4959   26.7169   21.6911 C   0  0  0  0  0  0  0  0  0  0  0  0
    5.6867   23.8267   22.4330 O   0  0  0  0  0  0  0  0  0  0  0  0
    7.3489   24.6549   23.8496 N   0  0  0  0  0  0  0  0  0  0  0  0
    8.4693   25.5103   23.5297 O   0  0  0  0  0  0  0  0  0  0  0  0
  1  2  1  0
  2  3  1  0
  3  4  2  0
  3  5  1  0
  2  6  1  0
  6  7  1  0
  7  8  1  0
  7  9  2  0
  9 10  1  0
  8 11  1  0
  8 12  2  0
  9 13  1  0
 12 13  1  0
M  END
$$$$
