3RZ0_RZ0_B_1_
     RDKit          3D

 17 17  0  0  0  0  0  0  0  0999 V2000
   15.1136    0.9853   16.8490 S   0  0  0  0  0  0  0  0  0  0  0  0
   18.3031    5.9692   13.3340 N   0  0  0  0  0  0  0  0  0  0  0  0
   16.4603    6.6302   13.5124 O   0  0  0  0  0  0  0  0  0  0  0  0
   16.7022    4.5180   14.6643 C   0  0  0  0  0  0  0  0  0  0  0  0
   17.0752    2.4416   15.7963 C   0  0  0  0  0  0  0  0  0  0  0  0
   17.6024    3.5365   15.0743 C   0  0  0  0  0  0  0  0  0  0  0  0
   15.7013    2.2920   16.0099 C   0  0  0  0  0  0  0  0  0  0  0  0
   15.3360    4.4340   14.9272 C   0  0  0  0  0  0  0  0  0  0  0  0
   14.8351    3.3105   15.5996 C   0  0  0  0  0  0  0  0  0  0  0  0
   17.1885    5.7276   13.9068 C   0  0  0  0  0  0  0  0  0  0  0  0
   19.6700    5.9059   13.1398 C   0  0  0  0  0  0  0  0  0  0  0  0
   13.6711    1.0150   16.7273 O   0  0  0  0  0  0  0  0  0  0  0  0
   19.8337    7.4121   12.9636 C   0  0  0  0  0  0  0  0  0  0  0  0
   15.6256    0.9823   18.1894 O   0  0  0  0  0  0  0  0  0  0  0  0
   19.5299    8.2028   14.2755 C   0  0  0  0  0  0  0  0  0  0  0  0
   15.6516   -0.3192   16.1890 N   0  0  0  0  0  0  0  0  0  0  0  0
   20.3121    9.5098   14.4433 C   0  0  0  0  0  0  0  0  0  0  0  0
  4  6  2  0
  5  6  1  0
  5  7  2  0
  1  7  1  0
  4  8  1  0
  8  9  2  0
  7  9  1  0
  2 10  1  0
  3 10  2  0
  4 10  1  0
  2 11  1  0
  1 12  2  0
 11 13  1  0
  1 14  2  0
 13 15  1  0
  1 16  1  0
 15 17  1  0
M  END
$$$$
