1C1R_BAI_A_246_
     RDKit          3D

 37 40  0  2  0  0  0  0  0  0999 V2000
   -2.9821    8.0987   19.8282 C   0  0  0  0  0  0  0  0  0  0  0  0
   -1.6028    7.9647   19.4199 C   0  0  0  0  0  0  0  0  0  0  0  0
   -0.8710    6.7833   19.6543 C   0  0  0  0  0  0  0  0  0  0  0  0
   -1.5609    5.7705   20.2873 C   0  0  0  0  0  0  0  0  0  0  0  0
   -2.8402    5.8793   20.6710 C   0  0  0  0  0  0  0  0  0  0  0  0
   -3.5869    6.9967   20.4729 C   0  0  0  0  0  0  0  0  0  0  0  0
   -3.7323    9.2605   19.6294 C   0  0  0  0  0  0  0  0  0  0  0  0
   -2.1573    3.9665   21.2230 C   0  0  0  0  0  0  0  0  0  0  0  0
   -2.0908    2.5191   21.8299 C   0  0  0  0  0  0  0  0  0  0  0  0
   -5.0315    9.2174   19.7067 N   0  0  0  0  0  0  0  0  0  0  0  0
   -1.1604    4.5791   20.6399 N   0  0  0  0  0  0  0  0  0  0  0  0
    1.4601   -0.8927   18.4280 C   0  0  0  0  0  0  0  0  0  0  0  0
    0.4624   -1.8897   18.6526 C   0  0  0  0  0  0  0  0  0  0  0  0
   -0.6864   -1.6264   19.4493 C   0  0  0  0  0  0  0  0  0  0  0  0
   -0.7728   -0.3542   19.9867 C   0  0  0  0  0  0  0  0  0  0  0  0
    0.1897    0.5831   19.7628 C   0  0  0  0  0  0  0  0  0  0  0  0
    1.3299    0.3850   18.9974 C   0  0  0  0  0  0  0  0  0  0  0  0
   -1.3301    1.4252   20.9825 C   0  0  0  0  0  0  0  0  0  0  0  0
   -1.7029    0.1943   20.7449 N   0  0  0  0  0  0  0  0  0  0  0  0
   -0.1899    1.6467   20.3892 N   0  0  0  0  0  0  0  0  0  0  0  0
   -1.1066    8.7844   18.9251 H   0  0  0  0  0  0  0  0  0  0  0  0
    0.1593    6.6735   19.3532 H   0  0  0  0  0  0  0  0  0  0  0  0
   -4.6140    7.0242   20.8036 H   0  0  0  0  0  0  0  0  0  0  0  0
   -3.0996    2.1803   22.0037 H   0  0  0  0  0  0  0  0  0  0  0  0
   -1.5983    2.5902   22.7900 H   0  0  0  0  0  0  0  0  0  0  0  0
   -5.4868    8.3363   19.8761 H   0  0  0  0  0  0  0  0  0  0  0  0
   -5.6197   10.0183   19.6893 H   0  0  0  0  0  0  0  0  0  0  0  0
   -2.1225   10.4057   19.2594 H   0  0  0  0  0  0  0  0  0  0  0  0
    2.3210   -1.1199   17.8182 H   0  0  0  0  0  0  0  0  0  0  0  0
    0.5803   -2.8649   18.2077 H   0  0  0  0  0  0  0  0  0  0  0  0
   -1.4508   -2.3695   19.6270 H   0  0  0  0  0  0  0  0  0  0  0  0
    2.0638    1.1617   18.8432 H   0  0  0  0  0  0  0  0  0  0  0  0
   -2.5336   -0.2394   21.0745 H   0  0  0  0  0  0  0  0  0  0  0  0
   -3.6294   11.2254   19.2250 H   0  0  0  0  0  0  0  0  0  0  0  0
   -4.0800    4.5541   21.6241 H   0  0  0  0  0  0  0  0  0  0  0  0
   -3.1292   10.3804   19.3572 N   0  0  0  0  0  0  0  0  0  0  0  0
   -3.1862    4.7566   21.2413 N   0  0  0  0  0  0  0  0  0  0  0  0
  1  2  2  0
  2  3  1  0
  3  4  2  0
  4  5  1  0
  1  6  1  0
  5  6  2  0
  1  7  1  0
  8  9  1  0
  7 10  1  0
  4 11  1  0
  8 11  1  0
 12 13  2  0
 13 14  1  0
 14 15  2  0
 15 16  1  0
 12 17  1  0
 16 17  2  0
  9 18  1  0
 15 19  1  0
 18 19  1  0
 16 20  1  0
 18 20  2  0
  2 21  1  0
  3 22  1  0
  6 23  1  0
  9 24  1  0
  9 25  1  0
 10 26  1  0
 10 27  1  0
 12 29  1  0
 13 30  1  0
 14 31  1  0
 17 32  1  0
 19 33  1  0
 36  7  2  0
 36 28  1  0
 36 34  1  0
 37  5  1  0
 37  8  2  0
 37 35  1  0
M  CHG  2  36   1  37   1
V   36 [N&+]
V   37 [N&+]
M  STY  2   1 DAT   2 DAT
M  SAL   1  1  36
M  SED   1 [N&+]
M  SAL   2  1  37
M  SED   2 [N&+]
M  END
$$$$
