3L5F_BDX_A_1_
     RDKit          3D

 23 25  0  0  0  0  0  0  0  0999 V2000
   21.8710   10.2365   23.7746 C   0  0  0  0  0  0  0  0  0  0  0  0
   21.8141   11.5797   23.9034 N   0  0  0  0  0  0  0  0  0  0  0  0
   20.8098   13.2579   22.6795 O   0  0  0  0  0  0  0  0  0  0  0  0
   21.0809   12.0770   22.8873 C   0  0  0  0  0  0  0  0  0  0  0  0
   21.2006    9.7519   22.6987 N   0  0  0  0  0  0  0  0  0  0  0  0
   20.6121   10.9001   22.0160 C   0  0  0  0  0  0  0  0  0  0  0  0
   22.5372    9.4765   24.6430 N   0  0  0  0  0  0  0  0  0  0  0  0
   19.0782   10.8451   22.0312 C   0  0  0  0  0  0  0  0  0  0  0  0
   22.5145   11.4253   20.3033 C   0  0  0  0  0  0  0  0  0  0  0  0
   23.5280   10.3628   20.7190 C   0  0  0  0  0  0  0  0  0  0  0  0
   24.9487   10.6541   20.2517 C   0  0  0  0  0  0  0  0  0  0  0  0
   24.9897   10.8855   18.7508 C   0  0  0  0  0  0  0  0  0  0  0  0
   24.1089   12.0459   18.3666 C   0  0  0  0  0  0  0  0  0  0  0  0
   22.6770   11.8175   18.8248 C   0  0  0  0  0  0  0  0  0  0  0  0
   21.0724   10.9964   20.5547 C   0  0  0  0  0  0  0  0  0  0  0  0
   18.4809   10.7794   23.4227 C   0  0  0  0  0  0  0  0  0  0  0  0
   16.9990   10.3712   23.4238 C   0  0  0  0  0  0  0  0  0  0  0  0
   16.4409   10.2149   24.8349 C   0  0  0  0  0  0  0  0  0  0  0  0
   14.9650    9.8311   24.8556 C   0  0  0  0  0  0  0  0  0  0  0  0
   14.1311   10.8145   24.0433 C   0  0  0  0  0  0  0  0  0  0  0  0
   14.6512   10.9654   22.6102 C   0  0  0  0  0  0  0  0  0  0  0  0
   16.1403   11.3151   22.5792 C   0  0  0  0  0  0  0  0  0  0  0  0
   22.4358   12.3588   24.9545 C   0  0  0  0  0  0  0  0  0  0  0  0
  1  2  1  0
  2  4  1  0
  3  4  2  0
  1  5  1  0
  4  6  1  0
  5  6  1  0
  1  7  2  0
  6  8  1  0
  9 10  1  0
 10 11  1  0
 11 12  1  0
 12 13  1  0
  9 14  1  0
 13 14  1  0
  6 15  1  0
  9 15  1  0
  8 16  1  0
 16 17  1  0
 17 18  1  0
 18 19  1  0
 19 20  1  0
 20 21  1  0
 17 22  1  0
 21 22  1  0
  2 23  1  0
M  END
$$$$
