3L5E_BDW_A_1_
     RDKit          3D

 39 43  0  0  0  0  0  0  0  0999 V2000
   20.3470   10.8870   22.0080 C   0  0  0  0  0  0  0  0  0  0  0  0
   21.0260    9.7710   22.6680 N   0  0  0  0  0  0  0  0  0  0  0  0
   20.2880   13.2200   22.7770 O   0  0  0  0  0  0  0  0  0  0  0  0
   21.6220   10.2740   23.7840 C   0  0  0  0  0  0  0  0  0  0  0  0
   21.4180   11.5980   23.9550 N   0  0  0  0  0  0  0  0  0  0  0  0
   28.4740   14.4550   24.7430 O   0  0  0  0  0  0  0  0  0  0  0  0
   20.6650   12.0640   22.9430 C   0  0  0  0  0  0  0  0  0  0  0  0
   22.3460    9.5500   24.6460 N   0  0  0  0  0  0  0  0  0  0  0  0
   20.9180   11.1270   20.5880 C   0  0  0  0  0  0  0  0  0  0  0  0
   27.5370   15.0610   22.7630 N   0  0  0  0  0  0  0  0  0  0  0  0
   18.8330   10.6660   21.9340 C   0  0  0  0  0  0  0  0  0  0  0  0
   29.3520   13.8200   22.7360 N   0  0  0  0  0  0  0  0  0  0  0  0
   22.3870   11.5800   20.5360 C   0  0  0  0  0  0  0  0  0  0  0  0
   21.9370   12.4150   25.0590 C   0  0  0  0  0  0  0  0  0  0  0  0
   23.0820   13.2950   24.6000 C   0  0  0  0  0  0  0  0  0  0  0  0
   22.9760   14.7140   24.6730 C   0  0  0  0  0  0  0  0  0  0  0  0
   24.0590   15.5380   24.2370 C   0  0  0  0  0  0  0  0  0  0  0  0
   25.2520   14.9460   23.7260 C   0  0  0  0  0  0  0  0  0  0  0  0
   25.3490   13.5210   23.6560 C   0  0  0  0  0  0  0  0  0  0  0  0
   24.2720   12.7010   24.0900 C   0  0  0  0  0  0  0  0  0  0  0  0
   23.3360   10.4030   20.7660 C   0  0  0  0  0  0  0  0  0  0  0  0
   24.7960   10.7240   20.4620 C   0  0  0  0  0  0  0  0  0  0  0  0
   24.9600   11.2420   19.0450 C   0  0  0  0  0  0  0  0  0  0  0  0
   24.1390   12.5040   18.8620 C   0  0  0  0  0  0  0  0  0  0  0  0
   22.6670   12.2530   19.1830 C   0  0  0  0  0  0  0  0  0  0  0  0
   18.1750   10.6840   23.3010 C   0  0  0  0  0  0  0  0  0  0  0  0
   26.4000   15.8400   23.2670 C   0  0  0  0  0  0  0  0  0  0  0  0
   27.7150   14.9140   21.3320 C   0  0  0  0  0  0  0  0  0  0  0  0
   28.9830   14.0280   21.3240 C   0  0  0  0  0  0  0  0  0  0  0  0
   28.4600   14.4450   23.5110 C   0  0  0  0  0  0  0  0  0  0  0  0
   28.6160   12.6810   20.6720 C   0  0  0  0  0  0  0  0  0  0  0  0
   29.1970   11.4300   21.2870 C   0  0  0  0  0  0  0  0  0  0  0  0
   28.5700   10.1590   20.6830 C   0  0  0  0  0  0  0  0  0  0  0  0
   16.7170   10.2260   23.2770 C   0  0  0  0  0  0  0  0  0  0  0  0
   16.1830   10.1010   24.6990 C   0  0  0  0  0  0  0  0  0  0  0  0
   14.7050    9.7250   24.7480 C   0  0  0  0  0  0  0  0  0  0  0  0
   13.8560   10.7110   23.9440 C   0  0  0  0  0  0  0  0  0  0  0  0
   14.3560   10.8830   22.5120 C   0  0  0  0  0  0  0  0  0  0  0  0
   15.8540   11.1840   22.4490 C   0  0  0  0  0  0  0  0  0  0  0  0
  1  2  1  0
  2  4  1  0
  4  5  1  0
  1  7  1  0
  3  7  2  0
  5  7  1  0
  4  8  2  0
  1  9  1  0
  1 11  1  0
  9 13  1  0
  5 14  1  0
 14 15  1  0
 15 16  2  0
 16 17  1  0
 17 18  2  0
 18 19  1  0
 15 20  1  0
 19 20  2  0
 13 21  1  0
 21 22  1  0
 22 23  1  0
 23 24  1  0
 13 25  1  0
 24 25  1  0
 11 26  1  0
 10 27  1  0
 18 27  1  0
 10 28  1  0
 12 29  1  0
 28 29  1  0
  6 30  2  0
 10 30  1  0
 12 30  1  0
 29 31  1  0
 31 32  1  0
 32 33  1  0
 26 34  1  0
 34 35  1  0
 35 36  1  0
 36 37  1  0
 37 38  1  0
 34 39  1  0
 38 39  1  0
M  END
$$$$
