3R17_5UM_B_1_
     RDKit          3D

 20 21  0  0  0  0  0  0  0  0999 V2000
   16.0140    2.0450   15.7920 C   0  0  0  0  0  0  0  0  0  0  0  0
   14.8980    5.1530   14.3660 F   0  0  0  0  0  0  0  0  0  0  0  0
   15.8390   -0.7040   16.1370 N   0  0  0  0  0  0  0  0  0  0  0  0
   15.7850    0.8270   18.0890 O   0  0  0  0  0  0  0  0  0  0  0  0
   15.3160    0.7160   16.7340 S   0  0  0  0  0  0  0  0  0  0  0  0
   15.1790    3.0880   15.4280 C   0  0  0  0  0  0  0  0  0  0  0  0
   13.8810    0.8000   16.7290 O   0  0  0  0  0  0  0  0  0  0  0  0
   15.6950    4.1430   14.7010 C   0  0  0  0  0  0  0  0  0  0  0  0
   17.0250    4.1580   14.3310 C   0  0  0  0  0  0  0  0  0  0  0  0
   17.8670    3.1140   14.6870 C   0  0  0  0  0  0  0  0  0  0  0  0
   17.3550    2.0610   15.4310 C   0  0  0  0  0  0  0  0  0  0  0  0
   17.4860    5.2730   13.5690 N   0  0  0  0  0  0  0  0  0  0  0  0
   18.8510    5.6800   13.4880 C   0  0  0  0  0  0  0  0  0  0  0  0
   19.7380    5.0880   14.0770 O   0  0  0  0  0  0  0  0  0  0  0  0
   19.1620    6.8700   12.6580 C   0  0  0  0  0  0  0  0  0  0  0  0
   20.0610    7.8250   13.3260 C   0  0  0  0  0  0  0  0  0  0  0  0
   21.2760    8.3030   12.8710 C   0  0  0  0  0  0  0  0  0  0  0  0
   21.9110    9.1880   13.7300 C   0  0  0  0  0  0  0  0  0  0  0  0
   21.2460    9.4630   14.9120 C   0  0  0  0  0  0  0  0  0  0  0  0
   19.8070    8.5390   14.8600 S   0  0  0  0  0  0  0  0  0  0  0  0
  1  5  1  0
  3  5  1  0
  4  5  2  0
  1  6  2  0
  5  7  2  0
  2  8  1  0
  6  8  1  0
  8  9  2  0
  9 10  1  0
  1 11  1  0
 10 11  2  0
  9 12  1  0
 12 13  1  0
 13 14  2  0
 13 15  1  0
 15 16  1  0
 16 17  2  0
 17 18  1  0
 18 19  2  0
 16 20  1  0
 19 20  1  0
M  END
$$$$
