2W8Y_486_A_1000_
     RDKit          3D

 32 36  0  0  0  0  0  0  0  0999 V2000
   13.5700    7.3990    2.9280 O   0  0  0  0  0  0  0  0  0  0  0  0
   13.0500    6.7680    3.8260 C   0  0  0  0  0  0  0  0  0  0  0  0
   11.5590    6.8400    3.9510 C   0  0  0  0  0  0  0  0  0  0  0  0
   13.8510    6.0290    4.7120 C   0  0  0  0  0  0  0  0  0  0  0  0
   13.3270    5.4180    5.7940 C   0  0  0  0  0  0  0  0  0  0  0  0
   14.2400    4.5480    6.6190 C   0  0  0  0  0  0  0  0  0  0  0  0
   11.9040    5.5750    6.1810 C   0  0  0  0  0  0  0  0  0  0  0  0
   10.9900    6.4020    5.2970 C   0  0  0  0  0  0  0  0  0  0  0  0
   11.4250    5.0620    7.3410 C   0  0  0  0  0  0  0  0  0  0  0  0
    9.9510    5.2980    7.7360 C   0  0  0  0  0  0  0  0  0  0  0  0
    8.9960    4.3080    7.0470 C   0  0  0  0  0  0  0  0  0  0  0  0
    9.4150    3.3370    6.1400 C   0  0  0  0  0  0  0  0  0  0  0  0
    8.5020    2.4920    5.5140 C   0  0  0  0  0  0  0  0  0  0  0  0
    7.1330    2.5810    5.7760 C   0  0  0  0  0  0  0  0  0  0  0  0
    6.2080    1.7330    5.1350 N   0  0  0  0  0  0  0  0  0  0  0  0
    6.5760    0.4340    4.5630 C   0  0  0  0  0  0  0  0  0  0  0  0
    4.9060    2.2840    4.7370 C   0  0  0  0  0  0  0  0  0  0  0  0
    6.7050    3.5560    6.6660 C   0  0  0  0  0  0  0  0  0  0  0  0
    7.6300    4.4050    7.2770 C   0  0  0  0  0  0  0  0  0  0  0  0
    9.7350    5.4050    9.2750 C   0  0  0  0  0  0  0  0  0  0  0  0
   10.4890    4.3300   10.0310 C   0  0  0  0  0  0  0  0  0  0  0  0
   10.0060    2.9410    9.5910 C   0  0  0  0  0  0  0  0  0  0  0  0
   10.5030    4.4320   11.5660 C   0  0  0  0  0  0  0  0  0  0  0  0
   10.7170    5.7960   12.0840 C   0  0  0  0  0  0  0  0  0  0  0  0
   10.9420    6.8570   12.5160 C   0  0  0  0  0  0  0  0  0  0  0  0
   11.2490    8.1660   13.1150 C   0  0  0  0  0  0  0  0  0  0  0  0
    9.3380    3.8990   12.1630 O   0  0  0  0  0  0  0  0  0  0  0  0
   11.7210    3.5760   11.9630 C   0  0  0  0  0  0  0  0  0  0  0  0
   12.6580    3.5960   10.7300 C   0  0  0  0  0  0  0  0  0  0  0  0
   11.9900    4.5410    9.7220 C   0  0  0  0  0  0  0  0  0  0  0  0
   12.3190    4.2570    8.2550 C   0  0  0  0  0  0  0  0  0  0  0  0
   13.7880    4.5820    8.0740 C   0  0  0  0  0  0  0  0  0  0  0  0
  1  2  2  0
  2  3  1  0
  2  4  1  0
  4  5  2  0
  5  6  1  0
  5  7  1  0
  3  8  1  0
  7  8  1  0
  7  9  2  0
  9 10  1  0
 10 11  1  0
 11 12  2  0
 12 13  1  0
 13 14  2  0
 14 15  1  0
 15 16  1  0
 15 17  1  0
 14 18  1  0
 11 19  1  0
 18 19  2  0
 10 20  1  0
 20 21  1  0
 21 22  1  0
 21 23  1  0
 23 24  1  0
 24 25  3  0
 25 26  1  0
 23 27  1  0
 23 28  1  0
 28 29  1  0
 21 30  1  0
 29 30  1  0
  9 31  1  0
 30 31  1  0
  6 32  1  0
 31 32  1  0
M  END
$$$$
