1SQN_NDR_B_2001_
     RDKit          3D

 22 25  0  0  0  0  0  0  0  0999 V2000
   13.7106    7.4792    2.8288 O   0  0  0  0  0  0  0  0  0  0  0  0
   13.1705    6.8520    3.6743 C   0  0  0  0  0  0  0  0  0  0  0  0
   11.6590    6.6829    3.7265 C   0  0  0  0  0  0  0  0  0  0  0  0
   14.0584    6.1556    4.6427 C   0  0  0  0  0  0  0  0  0  0  0  0
   13.3764    5.4681    5.7031 C   0  0  0  0  0  0  0  0  0  0  0  0
   14.3138    4.6677    6.6392 C   0  0  0  0  0  0  0  0  0  0  0  0
   12.0048    5.4746    6.0238 C   0  0  0  0  0  0  0  0  0  0  0  0
   11.1903    6.5283    5.2126 C   0  0  0  0  0  0  0  0  0  0  0  0
   11.6441    5.3640    7.4159 C   0  0  0  0  0  0  0  0  0  0  0  0
   12.3787    4.5852    8.3493 C   0  0  0  0  0  0  0  0  0  0  0  0
   13.9197    4.6717    8.1427 C   0  0  0  0  0  0  0  0  0  0  0  0
   10.1310    5.5100    7.7293 C   0  0  0  0  0  0  0  0  0  0  0  0
    9.8089    5.5207    9.2477 C   0  0  0  0  0  0  0  0  0  0  0  0
   10.4882    4.4145   10.0780 C   0  0  0  0  0  0  0  0  0  0  0  0
   11.9650    4.4727    9.7164 C   0  0  0  0  0  0  0  0  0  0  0  0
    9.9150    3.0149    9.6447 C   0  0  0  0  0  0  0  0  0  0  0  0
   10.5013    4.4840   11.6012 C   0  0  0  0  0  0  0  0  0  0  0  0
    9.3306    4.0196   12.2810 O   0  0  0  0  0  0  0  0  0  0  0  0
   11.7431    3.6734   12.0078 C   0  0  0  0  0  0  0  0  0  0  0  0
   12.7118    3.7224   10.8048 C   0  0  0  0  0  0  0  0  0  0  0  0
   10.7496    5.8866   12.0479 C   0  0  0  0  0  0  0  0  0  0  0  0
   11.0671    7.0319   12.5135 C   0  0  0  0  0  0  0  0  0  0  0  0
  1  2  2  0
  2  3  1  0
  2  4  1  0
  4  5  2  0
  5  6  1  0
  5  7  1  0
  3  8  1  0
  7  8  1  0
  7  9  1  0
  9 10  1  0
  6 11  1  0
 10 11  1  0
  9 12  1  0
 12 13  1  0
 13 14  1  0
 10 15  1  0
 14 15  1  0
 14 16  1  0
 14 17  1  0
 17 18  1  0
 17 19  1  0
 15 20  1  0
 19 20  1  0
 17 21  1  0
 21 22  3  0
M  END
$$$$
