2HA2_SCK_B_951_AA
     RDKit          3D

 20 19  0  0  0  0  0  0  0  0999 V2000
    8.0080   -8.0970  -36.8470 O   0  0  0  0  0  0  0  0  0  0  0  0
    8.0610   -6.8790  -36.7160 C   0  0  0  0  0  0  0  0  0  0  0  0
    7.2960   -6.0850  -37.6710 O   0  0  0  0  0  0  0  0  0  0  0  0
    6.1000   -5.3930  -37.3020 C   0  0  0  0  0  0  0  0  0  0  0  0
    5.7360   -4.3530  -38.3640 C   0  0  0  0  0  0  0  0  0  0  0  0
    5.4630   -3.0000  -37.8330 N   0  0  0  0  0  0  0  0  0  0  0  0
    5.3420   -2.0580  -38.9590 C   0  0  0  0  0  0  0  0  0  0  0  0
    4.2250   -3.0150  -37.0440 C   0  0  0  0  0  0  0  0  0  0  0  0
    6.5150   -2.5080  -36.9420 C   0  0  0  0  0  0  0  0  0  0  0  0
    8.8810   -6.2250  -35.6080 C   0  0  0  0  0  0  0  0  0  0  0  0
   10.0490   -7.0950  -35.1410 C   0  0  0  0  0  0  0  0  0  0  0  0
   11.2250   -7.0090  -36.0780 C   0  0  0  0  0  0  0  0  0  0  0  0
   11.6660   -5.9260  -36.4240 O   0  0  0  0  0  0  0  0  0  0  0  0
   11.8390   -8.2400  -36.5620 O   0  0  0  0  0  0  0  0  0  0  0  0
   12.8920   -8.2250  -37.5320 C   0  0  0  0  0  0  0  0  0  0  0  0
   13.8300   -9.4110  -37.2970 C   0  0  0  0  0  0  0  0  0  0  0  0
   13.4380  -10.6120  -38.0530 N   0  0  0  0  0  0  0  0  0  0  0  0
   12.0270  -10.9500  -37.8070 C   0  0  0  0  0  0  0  0  0  0  0  0
   13.6390  -10.3650  -39.4810 C   0  0  0  0  0  0  0  0  0  0  0  0
   14.2970  -11.7390  -37.6570 C   0  0  0  0  0  0  0  0  0  0  0  0
  1  2  2  0
  2  3  1  0
  3  4  1  0
  4  5  1  0
  5  6  1  0
  6  7  1  0
  6  8  1  0
  6  9  1  0
  2 10  1  0
 10 11  1  0
 11 12  1  0
 12 13  2  0
 12 14  1  0
 14 15  1  0
 15 16  1  0
 16 17  1  0
 17 18  1  0
 17 19  1  0
 17 20  1  0
M  CHG  2   6   1  17   1
M  END
$$$$
