4AGQ_P96_B_1290_
     RDKit          3D

 30 32  0  0  0  0  0  0  0  0999 V2000
  124.1430  101.0410  -50.0380 C   0  0  0  0  0  0  0  0  0  0  0  0
  124.2770   99.1030  -48.5430 N   0  0  0  0  0  0  0  0  0  0  0  0
  124.9530  102.6150  -45.2180 C   0  0  0  0  0  0  0  0  0  0  0  0
  124.3600  104.9480  -44.8350 C   0  0  0  0  0  0  0  0  0  0  0  0
  124.4440  107.4740  -44.6420 N   0  0  0  0  0  0  0  0  0  0  0  0
  124.5360  105.8700  -42.6340 O   0  0  0  0  0  0  0  0  0  0  0  0
  125.2710  102.4600  -43.8620 C   0  0  0  0  0  0  0  0  0  0  0  0
  123.8640  106.2700  -45.3630 C   0  0  0  0  0  0  0  0  0  0  0  0
  126.0470  111.4490  -44.1210 N   0  0  0  0  0  0  0  0  0  0  0  0
  123.4750  108.6240  -44.6600 C   0  0  0  0  0  0  0  0  0  0  0  0
  124.5060  103.8540  -45.7000 C   0  0  0  0  0  0  0  0  0  0  0  0
  125.1060  101.5220  -46.1290 C   0  0  0  0  0  0  0  0  0  0  0  0
  125.1290  103.5540  -42.9970 C   0  0  0  0  0  0  0  0  0  0  0  0
  125.2430  100.6340  -46.9280 C   0  0  0  0  0  0  0  0  0  0  0  0
  125.4780   99.5170  -47.8510 C   0  0  0  0  0  0  0  0  0  0  0  0
  123.5950   99.8970  -49.4460 C   0  0  0  0  0  0  0  0  0  0  0  0
  124.6730  104.7850  -43.4810 C   0  0  0  0  0  0  0  0  0  0  0  0
  122.2850   99.5460  -49.7930 C   0  0  0  0  0  0  0  0  0  0  0  0
  124.0900  109.8160  -43.9420 C   0  0  0  0  0  0  0  0  0  0  0  0
  121.5460  100.3110  -50.7010 C   0  0  0  0  0  0  0  0  0  0  0  0
  125.4260  110.1360  -44.6040 C   0  0  0  0  0  0  0  0  0  0  0  0
  124.7080  112.9600  -42.6470 C   0  0  0  0  0  0  0  0  0  0  0  0
  126.8100  111.3340  -42.8130 C   0  0  0  0  0  0  0  0  0  0  0  0
  127.8570  112.4350  -42.7220 C   0  0  0  0  0  0  0  0  0  0  0  0
  126.3960  108.9720  -44.3970 C   0  0  0  0  0  0  0  0  0  0  0  0
  125.8270  107.7810  -45.1470 C   0  0  0  0  0  0  0  0  0  0  0  0
  122.1100  101.4430  -51.2770 C   0  0  0  0  0  0  0  0  0  0  0  0
  123.4100  101.8120  -50.9470 C   0  0  0  0  0  0  0  0  0  0  0  0
  125.5710  103.3950  -40.9310 I   0  0  0  0  0  0  0  0  0  0  0  0
  125.0460  112.6100  -44.0860 C   0  0  0  0  0  0  0  0  0  0  0  0
  3  7  2  0
  4  8  1  0
  5  8  1  0
  5 10  1  0
  3 11  1  0
  4 11  2  0
  3 12  1  0
  7 13  1  0
 12 14  3  0
  2 15  1  0
 14 15  1  0
  1 16  2  0
  2 16  1  0
  4 17  1  0
  6 17  1  0
 13 17  2  0
 16 18  1  0
 10 19  1  0
 18 20  2  0
  9 21  1  0
 19 21  1  0
  9 23  1  0
 23 24  1  0
 21 25  1  0
  5 26  1  0
 25 26  1  0
 20 27  1  0
  1 28  1  0
 27 28  2  0
 13 29  1  0
  9 30  1  0
 22 30  1  0
M  END
$$$$
