4AGM_P86_A_400_
     RDKit          3D

 21 22  0  0  0  0  0  0  0  0999 V2000
  124.6863  102.7043  -45.1506 C   0  0  0  0  0  0  0  0  0  0  0  0
  124.2496  105.0692  -44.7892 C   0  0  0  0  0  0  0  0  0  0  0  0
  124.3957  107.5428  -44.6166 N   0  0  0  0  0  0  0  0  0  0  0  0
  124.5935  106.0504  -42.6175 O   0  0  0  0  0  0  0  0  0  0  0  0
  125.0435  102.5432  -43.8056 C   0  0  0  0  0  0  0  0  0  0  0  0
  123.7540  106.3855  -45.3176 C   0  0  0  0  0  0  0  0  0  0  0  0
  126.1640  111.4896  -44.2218 N   0  0  0  0  0  0  0  0  0  0  0  0
  123.5146  108.7638  -44.6403 C   0  0  0  0  0  0  0  0  0  0  0  0
  124.2907  103.9582  -45.6410 C   0  0  0  0  0  0  0  0  0  0  0  0
  124.9988  103.6700  -42.9684 C   0  0  0  0  0  0  0  0  0  0  0  0
  124.6051  104.9436  -43.4203 C   0  0  0  0  0  0  0  0  0  0  0  0
  124.1910  109.8879  -43.8709 C   0  0  0  0  0  0  0  0  0  0  0  0
  125.4932  110.1822  -44.6127 C   0  0  0  0  0  0  0  0  0  0  0  0
  127.1459  111.9287  -45.2946 C   0  0  0  0  0  0  0  0  0  0  0  0
  127.2364  113.4382  -45.4407 C   0  0  0  0  0  0  0  0  0  0  0  0
  126.8352  111.4184  -42.8678 C   0  0  0  0  0  0  0  0  0  0  0  0
  126.7764  112.7315  -42.0979 C   0  0  0  0  0  0  0  0  0  0  0  0
  126.4385  108.9778  -44.5051 C   0  0  0  0  0  0  0  0  0  0  0  0
  125.7582  107.8043  -45.1910 C   0  0  0  0  0  0  0  0  0  0  0  0
  124.7454  101.0710  -46.4961 I   0  0  0  0  0  0  0  0  0  0  0  0
  125.5042  103.4305  -40.9246 I   0  0  0  0  0  0  0  0  0  0  0  0
  1  5  2  0
  2  6  1  0
  3  6  1  0
  3  8  1  0
  1  9  1  0
  2  9  2  0
  5 10  1  0
  2 11  1  0
  4 11  1  0
 10 11  2  0
  8 12  1  0
  7 13  1  0
 12 13  1  0
  7 14  1  0
 14 15  1  0
  7 16  1  0
 16 17  1  0
 13 18  1  0
  3 19  1  0
 18 19  1  0
  1 20  1  0
 10 21  1  0
M  END
$$$$
