2ZFS_12U_A_501_
     RDKit          3D

 29 31  0  0  0  0  0  0  0  0999 V2000
   28.6330   -1.0330   16.7230 C   0  0  0  0  0  0  0  0  0  0  0  0
   27.5260   -0.7840   17.2090 O   0  0  0  0  0  0  0  0  0  0  0  0
   29.7830   -1.2450   17.6730 C   0  0  0  0  0  0  0  0  0  0  0  0
   29.5330   -0.5000   18.9370 N   0  0  0  0  0  0  0  0  0  0  0  0
   29.8540    0.9440   18.9280 C   0  0  0  0  0  0  0  0  0  0  0  0
   31.2790    1.1990   19.2940 C   0  0  0  0  0  0  0  0  0  0  0  0
   31.3910    1.2800   20.7990 C   0  0  0  0  0  0  0  0  0  0  0  0
   31.2250    2.6480   21.3890 C   0  0  0  0  0  0  0  0  0  0  0  0
   29.9080    3.2210   21.1430 C   0  0  0  0  0  0  0  0  0  0  0  0
   29.4170    2.7770   19.8420 C   0  0  0  0  0  0  0  0  0  0  0  0
   28.7690    1.4960   19.5650 C   0  0  0  0  0  0  0  0  0  0  0  0
   28.7020   -1.0400   15.4270 N   0  0  0  0  0  0  0  0  0  0  0  0
   27.7440   -0.7940   14.6310 C   0  0  0  0  0  0  0  0  0  0  0  0
   26.6100   -1.7090   14.5000 C   0  0  0  0  0  0  0  0  0  0  0  0
   26.6790   -2.8940   14.8240 O   0  0  0  0  0  0  0  0  0  0  0  0
   28.3430   -0.6200   13.2310 C   0  0  0  0  0  0  0  0  0  0  0  0
   29.6590   -1.3350   13.2780 C   0  0  0  0  0  0  0  0  0  0  0  0
   29.9930   -1.3170   14.7630 C   0  0  0  0  0  0  0  0  0  0  0  0
   25.4700   -1.3260   14.0110 N   0  0  0  0  0  0  0  0  0  0  0  0
   24.3470   -2.1350   13.6570 C   0  0  0  0  0  0  0  0  0  0  0  0
   23.2520   -2.0120   14.7090 C   0  0  0  0  0  0  0  0  0  0  0  0
   23.3090   -2.4080   16.0240 C   0  0  0  0  0  0  0  0  0  0  0  0
   22.1860   -2.2110   16.8550 C   0  0  0  0  0  0  0  0  0  0  0  0
   20.9650   -1.6340   16.4790 C   0  0  0  0  0  0  0  0  0  0  0  0
   19.8400   -1.4820   17.4860 C   0  0  0  0  0  0  0  0  0  0  0  0
   19.0160   -0.4670   17.2910 N   0  0  0  0  0  0  0  0  0  0  0  0
   19.6820   -2.3110   18.5070 N   0  0  0  0  0  0  0  0  0  0  0  0
   20.9130   -1.2380   15.1660 C   0  0  0  0  0  0  0  0  0  0  0  0
   22.0300   -1.4310   14.3260 C   0  0  0  0  0  0  0  0  0  0  0  0
  1  2  2  0
  1  3  1  0
  3  4  1  0
  4  5  1  0
  5  6  1  0
  6  7  1  0
  7  8  1  0
  8  9  1  0
  9 10  1  0
  5 11  1  0
 10 11  1  0
  1 12  1  0
 12 13  1  0
 13 14  1  0
 14 15  2  0
 13 16  1  0
 16 17  1  0
 17 18  1  0
 12 18  1  0
 14 19  1  0
 19 20  1  0
 20 21  1  0
 21 22  2  0
 22 23  1  0
 23 24  2  0
 24 25  1  0
 25 26  2  0
 25 27  1  0
 24 28  1  0
 21 29  1  0
 28 29  2  0
M  END
$$$$
