2HA2_SCK_A_901_AA
     RDKit          3D

 20 19  0  0  0  0  0  0  0  0999 V2000
   30.8670   23.0330   11.8530 O   0  0  0  0  0  0  0  0  0  0  0  0
   29.8630   22.3520   11.7430 C   0  0  0  0  0  0  0  0  0  0  0  0
   28.9800   22.2070   12.8820 O   0  0  0  0  0  0  0  0  0  0  0  0
   28.6210   20.9060   13.3250 C   0  0  0  0  0  0  0  0  0  0  0  0
   27.3260   20.9930   14.1140 C   0  0  0  0  0  0  0  0  0  0  0  0
   26.8500   19.6300   14.3600 N   0  0  0  0  0  0  0  0  0  0  0  0
   27.6200   19.0250   15.4500 C   0  0  0  0  0  0  0  0  0  0  0  0
   25.4310   19.6670   14.7190 C   0  0  0  0  0  0  0  0  0  0  0  0
   27.0310   18.8390   13.1410 C   0  0  0  0  0  0  0  0  0  0  0  0
   29.5360   21.6720   10.4400 C   0  0  0  0  0  0  0  0  0  0  0  0
   30.4120   22.2660    9.3520 C   0  0  0  0  0  0  0  0  0  0  0  0
   31.7770   21.6440    9.4390 C   0  0  0  0  0  0  0  0  0  0  0  0
   31.8980   20.4420    9.5730 O   0  0  0  0  0  0  0  0  0  0  0  0
   32.9620   22.4730    9.3660 O   0  0  0  0  0  0  0  0  0  0  0  0
   34.1550   21.9430    8.8010 C   0  0  0  0  0  0  0  0  0  0  0  0
   34.9900   23.0740    8.2180 C   0  0  0  0  0  0  0  0  0  0  0  0
   35.7940   23.6760    9.2800 N   0  0  0  0  0  0  0  0  0  0  0  0
   36.4640   22.6120   10.0320 C   0  0  0  0  0  0  0  0  0  0  0  0
   36.7930   24.5730    8.6970 C   0  0  0  0  0  0  0  0  0  0  0  0
   34.9250   24.4430   10.1730 C   0  0  0  0  0  0  0  0  0  0  0  0
  1  2  2  0
  2  3  1  0
  3  4  1  0
  4  5  1  0
  5  6  1  0
  6  7  1  0
  6  8  1  0
  6  9  1  0
  2 10  1  0
 10 11  1  0
 11 12  1  0
 12 13  2  0
 12 14  1  0
 14 15  1  0
 15 16  1  0
 16 17  1  0
 17 18  1  0
 17 19  1  0
 17 20  1  0
M  CHG  2   6   1  17   1
M  END
$$$$
