2VTI_LZ3_A_1299_
     RDKit          3D

 22 24  0  0  0  0  0  0  0  0999 V2000
   29.3650    6.3440   64.8890 N   0  0  0  0  0  0  0  0  0  0  0  0
   28.1760    6.4260   64.3010 C   0  0  0  0  0  0  0  0  0  0  0  0
   27.4700    5.1580   64.1070 C   0  0  0  0  0  0  0  0  0  0  0  0
   25.5550    5.6480   62.4670 C   0  0  0  0  0  0  0  0  0  0  0  0
   24.5010    5.0540   61.7950 C   0  0  0  0  0  0  0  0  0  0  0  0
   24.2700    3.6940   61.9270 C   0  0  0  0  0  0  0  0  0  0  0  0
   25.0950    2.9240   62.7250 C   0  0  0  0  0  0  0  0  0  0  0  0
   26.3690    4.8860   63.3020 C   0  0  0  0  0  0  0  0  0  0  0  0
   27.7090    7.4980   63.8860 O   0  0  0  0  0  0  0  0  0  0  0  0
   27.9260    4.0410   64.6890 N   0  0  0  0  0  0  0  0  0  0  0  0
   27.1080    3.0460   64.2680 N   0  0  0  0  0  0  0  0  0  0  0  0
   30.4330    8.1040   63.6190 C   0  0  0  0  0  0  0  0  0  0  0  0
   31.3590    9.1170   63.5230 C   0  0  0  0  0  0  0  0  0  0  0  0
   32.1550    9.4290   64.6110 C   0  0  0  0  0  0  0  0  0  0  0  0
   32.0300    8.7200   65.7930 C   0  0  0  0  0  0  0  0  0  0  0  0
   31.1030    7.6970   65.8850 C   0  0  0  0  0  0  0  0  0  0  0  0
   33.3630   10.6960   64.4650 S   0  0  0  0  0  0  0  0  0  0  0  0
   34.3260   10.2290   63.5230 O   0  0  0  0  0  0  0  0  0  0  0  0
   33.8050   11.0330   65.7970 O   0  0  0  0  0  0  0  0  0  0  0  0
   32.6660   12.0040   63.8450 N   0  0  0  0  0  0  0  0  0  0  0  0
   30.3090    7.3760   64.8020 C   0  0  0  0  0  0  0  0  0  0  0  0
   26.1450    3.5130   63.4150 C   0  0  0  0  0  0  0  0  0  0  0  0
  1  2  1  0
  2  3  1  0
  4  5  2  0
  5  6  1  0
  6  7  2  0
  3  8  1  0
  4  8  1  0
  2  9  2  0
  3 10  2  0
 10 11  1  0
 12 13  2  0
 13 14  1  0
 14 15  2  0
 15 16  1  0
 14 17  1  0
 17 18  2  0
 17 19  2  0
 17 20  1  0
  1 21  1  0
 12 21  1  0
 16 21  2  0
  7 22  1  0
  8 22  2  0
 11 22  1  0
M  END
$$$$
