2XDX_WOE_A_1224_
     RDKit          3D

 16 17  0  0  0  0  0  0  0  0999 V2000
   35.2357    0.3377   19.8374 C   0  0  0  0  0  0  0  0  0  0  0  0
   34.0046    0.3771   19.1119 O   0  0  0  0  0  0  0  0  0  0  0  0
   34.0412    0.0621   17.7782 C   0  0  0  0  0  0  0  0  0  0  0  0
   35.1013    0.3430   16.9317 C   0  0  0  0  0  0  0  0  0  0  0  0
   35.0369   -0.0121   15.6036 C   0  0  0  0  0  0  0  0  0  0  0  0
   33.9267   -0.6838   15.1178 C   0  0  0  0  0  0  0  0  0  0  0  0
   32.8646   -0.9774   15.9550 C   0  0  0  0  0  0  0  0  0  0  0  0
   32.9123   -0.6236   17.2965 C   0  0  0  0  0  0  0  0  0  0  0  0
   31.7592   -0.9493   18.1686 C   0  0  0  0  0  0  0  0  0  0  0  0
   31.1994   -2.2026   18.2140 C   0  0  0  0  0  0  0  0  0  0  0  0
   30.1081   -2.3924   19.0437 C   0  0  0  0  0  0  0  0  0  0  0  0
   29.3417   -3.9493   19.1142 Cl  0  0  0  0  0  0  0  0  0  0  0  0
   29.5867   -1.4330   19.8192 N   0  0  0  0  0  0  0  0  0  0  0  0
   30.2031   -0.2158   19.7189 C   0  0  0  0  0  0  0  0  0  0  0  0
   29.7180    0.8168   20.5020 N   0  0  0  0  0  0  0  0  0  0  0  0
   31.2845    0.0491   18.9337 N   0  0  0  0  0  0  0  0  0  0  0  0
  1  2  1  0
  2  3  1  0
  3  4  2  0
  4  5  1  0
  5  6  2  0
  6  7  1  0
  3  8  1  0
  7  8  2  0
  8  9  1  0
  9 10  2  0
 10 11  1  0
 11 12  1  0
 11 13  2  0
 13 14  1  0
 14 15  1  0
  9 16  1  0
 14 16  2  0
M  END
$$$$
