3R4P_FU7_B_901_
     RDKit          3D

 34 37  0  0  0  0  0  0  0  0999 V2000
   33.2840   -0.0640   17.6290 C   0  0  0  0  0  0  0  0  0  0  0  0
   29.5750   -7.1950   15.0290 F   0  0  0  0  0  0  0  0  0  0  0  0
   31.2320   -4.0620   17.7610 N   0  0  0  0  0  0  0  0  0  0  0  0
   32.4360   -5.4830   16.4060 O   0  0  0  0  0  0  0  0  0  0  0  0
   34.4930    0.2050   20.1220 Cl  0  0  0  0  0  0  0  0  0  0  0  0
   33.3770   -0.0490   16.1760 C   0  0  0  0  0  0  0  0  0  0  0  0
   28.4620   -8.0220   16.7090 F   0  0  0  0  0  0  0  0  0  0  0  0
   29.7550   -1.3240   19.7120 N   0  0  0  0  0  0  0  0  0  0  0  0
   32.1900   -0.2590   15.5180 O   0  0  0  0  0  0  0  0  0  0  0  0
   37.2900    0.6440   15.5570 Cl  0  0  0  0  0  0  0  0  0  0  0  0
   34.6350    0.1800   15.5470 C   0  0  0  0  0  0  0  0  0  0  0  0
   31.3650    0.4190   19.1150 N   0  0  0  0  0  0  0  0  0  0  0  0
   35.7840    0.4030   16.3320 C   0  0  0  0  0  0  0  0  0  0  0  0
   29.5320    0.8740   20.5680 N   0  0  0  0  0  0  0  0  0  0  0  0
   35.7190    0.4240   17.7400 C   0  0  0  0  0  0  0  0  0  0  0  0
   30.5910   -6.3220   17.5170 N   0  0  0  0  0  0  0  0  0  0  0  0
   34.4780    0.2030   18.3890 C   0  0  0  0  0  0  0  0  0  0  0  0
   30.0700   -1.6440   14.2700 N   0  0  0  0  0  0  0  0  0  0  0  0
   31.6000   -1.8130   18.2210 C   0  0  0  0  0  0  0  0  0  0  0  0
   29.1750   -1.5030   15.2730 N   0  0  0  0  0  0  0  0  0  0  0  0
   32.1400   -2.9630   17.4590 C   0  0  0  0  0  0  0  0  0  0  0  0
   30.1470   -3.6390   18.6920 C   0  0  0  0  0  0  0  0  0  0  0  0
   30.4620   -2.1770   18.9280 C   0  0  0  0  0  0  0  0  0  0  0  0
   30.2310   -0.0310   19.7800 C   0  0  0  0  0  0  0  0  0  0  0  0
   32.0420   -0.4790   18.3400 C   0  0  0  0  0  0  0  0  0  0  0  0
   31.4750   -5.3060   17.1790 C   0  0  0  0  0  0  0  0  0  0  0  0
   32.1400   -0.2610   14.0870 C   0  0  0  0  0  0  0  0  0  0  0  0
   30.6870   -0.4750   13.6850 C   0  0  0  0  0  0  0  0  0  0  0  0
   30.2880   -2.9380   13.9070 C   0  0  0  0  0  0  0  0  0  0  0  0
   29.4870   -3.6910   14.7210 C   0  0  0  0  0  0  0  0  0  0  0  0
   28.8240   -2.7590   15.5390 C   0  0  0  0  0  0  0  0  0  0  0  0
   30.7570   -7.6740   16.9850 C   0  0  0  0  0  0  0  0  0  0  0  0
   29.6390   -8.0750   16.0570 C   0  0  0  0  0  0  0  0  0  0  0  0
   29.8280   -9.4720   15.4990 C   0  0  0  0  0  0  0  0  0  0  0  0
  1  6  1  0
  6  9  1  0
  6 11  2  0
 10 13  1  0
 11 13  1  0
 13 15  2  0
  5 17  1  0
  1 17  2  0
 15 17  1  0
 18 20  1  0
  3 21  1  0
 19 21  1  0
  3 22  1  0
  8 23  1  0
 19 23  2  0
 22 23  1  0
 14 24  1  0
  8 24  2  0
 12 24  1  0
 12 25  2  0
  1 25  1  0
 19 25  1  0
  3 26  1  0
 16 26  1  0
  4 26  2  0
  9 27  1  0
 18 28  1  0
 27 28  1  0
 18 29  1  0
 29 30  2  0
 30 31  1  0
 20 31  2  0
 16 32  1  0
  7 33  1  0
 32 33  1  0
  2 33  1  0
 33 34  1  0
M  END
$$$$
