2VTN_LZ7_A_1299_
     RDKit          3D

 19 20  0  0  0  0  0  0  0  0999 V2000
   24.3103    6.2447   61.4616 C   0  0  0  0  0  0  0  0  0  0  0  0
   24.8857    5.1303   62.2692 C   0  0  0  0  0  0  0  0  0  0  0  0
   24.4000    4.0131   62.2665 O   0  0  0  0  0  0  0  0  0  0  0  0
   25.9847    5.4348   62.9868 N   0  0  0  0  0  0  0  0  0  0  0  0
   26.6673    4.5832   63.8401 C   0  0  0  0  0  0  0  0  0  0  0  0
   26.4123    3.2785   64.1451 C   0  0  0  0  0  0  0  0  0  0  0  0
   27.3456    2.9010   65.0065 N   0  0  0  0  0  0  0  0  0  0  0  0
   28.1975    3.9101   65.2850 N   0  0  0  0  0  0  0  0  0  0  0  0
   27.7967    4.9283   64.5700 C   0  0  0  0  0  0  0  0  0  0  0  0
   28.5299    6.2163   64.6152 C   0  0  0  0  0  0  0  0  0  0  0  0
   28.0985    7.2115   64.0542 O   0  0  0  0  0  0  0  0  0  0  0  0
   29.7033    6.2107   65.2719 N   0  0  0  0  0  0  0  0  0  0  0  0
   30.5811    7.2748   65.4097 C   0  0  0  0  0  0  0  0  0  0  0  0
   31.2095    7.5126   66.6305 C   0  0  0  0  0  0  0  0  0  0  0  0
   32.0763    8.5787   66.7714 C   0  0  0  0  0  0  0  0  0  0  0  0
   32.3176    9.3980   65.6914 C   0  0  0  0  0  0  0  0  0  0  0  0
   33.1632   10.4333   65.8331 F   0  0  0  0  0  0  0  0  0  0  0  0
   31.7124    9.1810   64.4667 C   0  0  0  0  0  0  0  0  0  0  0  0
   30.8416    8.1179   64.3259 C   0  0  0  0  0  0  0  0  0  0  0  0
  1  2  1  0
  2  3  2  0
  2  4  1  0
  4  5  1  0
  5  6  2  0
  6  7  1  0
  7  8  1  0
  5  9  1  0
  8  9  2  0
  9 10  1  0
 10 11  2  0
 10 12  1  0
 12 13  1  0
 13 14  2  0
 14 15  1  0
 15 16  2  0
 16 17  1  0
 16 18  1  0
 13 19  1  0
 18 19  2  0
M  END
$$$$
