1O5C_CR9_B_251_
     RDKit          3D

 51 54  0  0  0  0  0  0  0  0999 V2000
    9.0020    1.4910   24.6770 C   0  0  0  0  0  0  0  0  0  0  0  0
    9.8640    1.3400   23.5390 C   0  0  0  0  0  0  0  0  0  0  0  0
   10.1700    0.1120   23.0300 F   0  0  0  0  0  0  0  0  0  0  0  0
   10.4530    2.4210   22.8940 C   0  0  0  0  0  0  0  0  0  0  0  0
   10.1720    3.6340   23.4030 C   0  0  0  0  0  0  0  0  0  0  0  0
    9.3730    3.8380   24.4630 C   0  0  0  0  0  0  0  0  0  0  0  0
    8.7640    2.8120   25.1330 C   0  0  0  0  0  0  0  0  0  0  0  0
    8.4260    0.3820   25.3370 C   0  0  0  0  0  0  0  0  0  0  0  0
    8.1470    0.4560   26.6070 N   0  0  0  0  0  0  0  0  0  0  0  0
    8.1560   -0.7490   24.7410 N   0  0  0  0  0  0  0  0  0  0  0  0
   10.5870    4.7790   23.0070 N   0  0  0  0  0  0  0  0  0  0  0  0
    9.2530    5.1110   24.7770 N   0  0  0  0  0  0  0  0  0  0  0  0
   10.0320    5.6180   23.8310 C   0  0  0  0  0  0  0  0  0  0  0  0
   10.2680    7.0030   23.7360 C   0  0  0  0  0  0  0  0  0  0  0  0
    9.8850    7.8860   24.7700 C   0  0  0  0  0  0  0  0  0  0  0  0
   10.1310    9.2490   24.7030 C   0  0  0  0  0  0  0  0  0  0  0  0
   10.7630    9.7800   23.5950 C   0  0  0  0  0  0  0  0  0  0  0  0
   11.1590    8.9310   22.5420 C   0  0  0  0  0  0  0  0  0  0  0  0
   10.9110    7.5780   22.6150 C   0  0  0  0  0  0  0  0  0  0  0  0
   11.3330    6.8450   21.5280 O   0  0  0  0  0  0  0  0  0  0  0  0
   11.8250    9.3430   21.3970 O   0  0  0  0  0  0  0  0  0  0  0  0
   12.1860   11.6150   20.7560 C   0  0  0  0  0  0  0  0  0  0  0  0
   13.0180   11.7970   19.4910 C   0  0  0  0  0  0  0  0  0  0  0  0
   14.4610   12.1430   19.8460 C   0  0  0  0  0  0  0  0  0  0  0  0
   14.9590   11.3970   21.0940 C   0  0  0  0  0  0  0  0  0  0  0  0
   14.1580   10.0860   21.2660 C   0  0  0  0  0  0  0  0  0  0  0  0
   12.7110   10.4360   21.5990 C   0  0  0  0  0  0  0  0  0  0  0  0
   10.7240   11.3220   20.3660 C   0  0  0  0  0  0  0  0  0  0  0  0
   11.0960    2.2990   22.0350 H   0  0  0  0  0  0  0  0  0  0  0  0
    8.1220    3.0040   25.9710 H   0  0  0  0  0  0  0  0  0  0  0  0
    8.3330    1.2980   27.1150 H   0  0  0  0  0  0  0  0  0  0  0  0
    7.7470   -0.3340   27.0720 H   0  0  0  0  0  0  0  0  0  0  0  0
    8.3480   -0.8640   23.7660 H   0  0  0  0  0  0  0  0  0  0  0  0
    7.7630   -1.5050   25.2660 H   0  0  0  0  0  0  0  0  0  0  0  0
   11.1820    4.9670   22.2540 H   0  0  0  0  0  0  0  0  0  0  0  0
    9.3870    7.4990   25.6470 H   0  0  0  0  0  0  0  0  0  0  0  0
    9.8290    9.8930   25.5150 H   0  0  0  0  0  0  0  0  0  0  0  0
   10.9460   10.8420   23.5520 H   0  0  0  0  0  0  0  0  0  0  0  0
   12.2230   12.5260   21.3380 H   0  0  0  0  0  0  0  0  0  0  0  0
   12.9820   10.8960   18.9020 H   0  0  0  0  0  0  0  0  0  0  0  0
   12.6140   12.6120   18.9120 H   0  0  0  0  0  0  0  0  0  0  0  0
   14.5600   13.2090   19.9840 H   0  0  0  0  0  0  0  0  0  0  0  0
   15.0600   11.8540   19.0040 H   0  0  0  0  0  0  0  0  0  0  0  0
   16.0080   11.1660   20.9840 H   0  0  0  0  0  0  0  0  0  0  0  0
   14.8390   12.0260   21.9650 H   0  0  0  0  0  0  0  0  0  0  0  0
   14.5730    9.5300   22.0930 H   0  0  0  0  0  0  0  0  0  0  0  0
   14.1970    9.4850   20.3700 H   0  0  0  0  0  0  0  0  0  0  0  0
   12.7380   10.7510   22.6300 H   0  0  0  0  0  0  0  0  0  0  0  0
   10.5720   10.2690   20.1740 H   0  0  0  0  0  0  0  0  0  0  0  0
   10.0620   11.6300   21.1640 H   0  0  0  0  0  0  0  0  0  0  0  0
   10.4620   11.8770   19.4780 H   0  0  0  0  0  0  0  0  0  0  0  0
  1  2  2  0
  2  3  1  0
  2  4  1  0
  4  5  2  0
  5  6  1  0
  1  7  1  0
  6  7  2  0
  1  8  1  0
  8  9  1  0
  8 10  2  0
  5 11  1  0
  6 12  1  0
 11 13  1  0
 12 13  2  0
 13 14  1  0
 14 15  2  0
 15 16  1  0
 16 17  2  0
 17 18  1  0
 14 19  1  0
 18 19  2  0
 19 20  1  0
 18 21  1  0
 22 23  1  0
 23 24  1  0
 24 25  1  0
 25 26  1  0
 21 27  1  0
 22 27  1  0
 26 27  1  0
 22 28  1  0
  4 29  1  0
  7 30  1  0
  9 31  1  0
  9 32  1  0
 10 33  1  0
 10 34  1  0
 11 35  1  0
 15 36  1  0
 16 37  1  0
 17 38  1  0
 22 39  1  0
 23 40  1  0
 23 41  1  0
 24 42  1  0
 24 43  1  0
 25 44  1  0
 25 45  1  0
 26 46  1  0
 26 47  1  0
 27 48  1  0
 28 49  1  0
 28 50  1  0
 28 51  1  0
M  CHG  2  10   1  20  -1
M  END
$$$$
