2OHT_IP6_A_601_
     RDKit          3D

 24 27  0  0  0  0  0  0  0  0999 V2000
   66.0476   48.5620    6.1632 N   0  0  0  0  0  0  0  0  0  0  0  0
   65.9359   48.0899    7.4689 C   0  0  0  0  0  0  0  0  0  0  0  0
   65.2958   46.9455    7.7043 N   0  0  0  0  0  0  0  0  0  0  0  0
   65.1694   46.4524    8.9264 C   0  0  0  0  0  0  0  0  0  0  0  0
   65.6992   47.1076   10.0234 C   0  0  0  0  0  0  0  0  0  0  0  0
   66.3760   48.3040    9.8227 C   0  0  0  0  0  0  0  0  0  0  0  0
   66.5028   48.8195    8.5297 C   0  0  0  0  0  0  0  0  0  0  0  0
   67.1855   50.0342    8.2855 N   0  0  0  0  0  0  0  0  0  0  0  0
   67.8880   50.7517    9.3682 C   0  0  0  0  0  0  0  0  0  0  0  0
   69.2424   50.1044    9.6185 C   0  0  0  0  0  0  0  0  0  0  0  0
   69.6564   49.9162   10.9390 C   0  0  0  0  0  0  0  0  0  0  0  0
   70.8810   49.3221   11.1931 C   0  0  0  0  0  0  0  0  0  0  0  0
   71.6974   48.9096   10.1380 C   0  0  0  0  0  0  0  0  0  0  0  0
   71.3007   49.1043    8.8046 C   0  0  0  0  0  0  0  0  0  0  0  0
   70.0520   49.6935    8.5493 C   0  0  0  0  0  0  0  0  0  0  0  0
   72.1914   48.6408    7.7107 C   0  0  0  0  0  0  0  0  0  0  0  0
   73.5959   48.6755    7.8755 C   0  0  0  0  0  0  0  0  0  0  0  0
   74.4261   48.2269    6.8731 C   0  0  0  0  0  0  0  0  0  0  0  0
   73.8863   47.7179    5.6704 C   0  0  0  0  0  0  0  0  0  0  0  0
   74.4591   47.1721    4.4238 C   0  0  0  0  0  0  0  0  0  0  0  0
   73.4333   46.8252    3.6088 C   0  0  0  0  0  0  0  0  0  0  0  0
   72.2380   47.1100    4.2215 N   0  0  0  0  0  0  0  0  0  0  0  0
   72.4718   47.6508    5.4916 C   0  0  0  0  0  0  0  0  0  0  0  0
   71.6340   48.1148    6.5314 C   0  0  0  0  0  0  0  0  0  0  0  0
  1  2  1  0
  2  3  2  0
  3  4  1  0
  4  5  2  0
  5  6  1  0
  2  7  1  0
  6  7  2  0
  7  8  1  0
  8  9  1  0
  9 10  1  0
 10 11  2  0
 11 12  1  0
 12 13  2  0
 13 14  1  0
 10 15  1  0
 14 15  2  0
 14 16  1  0
 16 17  2  0
 17 18  1  0
 18 19  2  0
 19 20  1  0
 20 21  2  0
 21 22  1  0
 19 23  1  0
 22 23  1  0
 16 24  1  0
 23 24  2  0
M  END
$$$$
