1O6I_0HZ_B_1519_B
     RDKit          3D

 18 19  0  0  0  0  0  0  0  0999 V2000
   17.6697   44.8467  102.2924 N   0  0  0  0  0  0  0  0  0  0  0  0
   18.7045   44.7317  103.3490 C   0  0  0  0  0  0  0  0  0  0  0  0
   19.3838   46.0971  103.3651 C   0  0  0  0  0  0  0  0  0  0  0  0
   18.3136   47.0883  102.8748 C   0  0  0  0  0  0  0  0  0  0  0  0
   17.2348   46.2647  102.1565 C   0  0  0  0  0  0  0  0  0  0  0  0
   19.6913   43.5959  103.0239 C   0  0  0  0  0  0  0  0  0  0  0  0
   20.8535   43.6416  103.4159 O   0  0  0  0  0  0  0  0  0  0  0  0
   19.2390   42.4524  102.3370 N   0  0  0  0  0  0  0  0  0  0  0  0
   17.8716   42.3142  101.7447 C   0  0  0  0  0  0  0  0  0  0  0  0
   17.2095   43.6956  101.5843 C   0  0  0  0  0  0  0  0  0  0  0  0
   16.2495   43.7991  100.8212 O   0  0  0  0  0  0  0  0  0  0  0  0
   17.0057   41.4148  102.6457 C   0  0  0  0  0  0  0  0  0  0  0  0
   17.4872   39.9579  102.6468 C   0  0  0  0  0  0  0  0  0  0  0  0
   16.3031   38.9861  102.7607 C   0  0  0  0  0  0  0  0  0  0  0  0
   16.0092   38.7125  104.1786 N   0  0  0  0  0  0  0  0  0  0  0  0
   15.0151   37.9137  104.5637 C   0  0  0  0  0  0  0  0  0  0  0  0
   15.3025   36.9723  105.4556 N   0  0  0  0  0  0  0  0  0  0  0  0
   13.7843   38.0526  104.0854 N   0  0  0  0  0  0  0  0  0  0  0  0
  1  2  1  0
  2  3  1  0
  3  4  1  0
  1  5  1  0
  4  5  1  0
  2  6  1  0
  6  7  2  0
  6  8  1  0
  8  9  1  0
  9 10  1  0
  1 10  1  0
 10 11  2  0
  9 12  1  0
 12 13  1  0
 13 14  1  0
 14 15  1  0
 15 16  1  0
 16 17  1  0
 16 18  2  0
M  CHG  1  18   1
M  END
$$$$
