3ZSY_OM3_A_1214_
     RDKit          3D

 32 35  0  0  0  0  0  0  0  0999 V2000
  -10.8860   48.3225    5.6675 C   0  0  0  0  0  0  0  0  0  0  0  0
  -11.7345   49.2077    5.0592 C   0  0  0  0  0  0  0  0  0  0  0  0
   -9.9336   47.6868    4.8905 C   0  0  0  0  0  0  0  0  0  0  0  0
  -11.6285   49.4273    3.7000 C   0  0  0  0  0  0  0  0  0  0  0  0
  -11.6947   45.8665   -1.7931 C   0  0  0  0  0  0  0  0  0  0  0  0
  -12.4636   45.2136   -2.7418 C   0  0  0  0  0  0  0  0  0  0  0  0
   -9.8126   47.9106    3.5282 C   0  0  0  0  0  0  0  0  0  0  0  0
  -13.5299   45.9093   -0.2288 C   0  0  0  0  0  0  0  0  0  0  0  0
  -10.6833   48.8026    2.9209 C   0  0  0  0  0  0  0  0  0  0  0  0
  -12.2024   46.2099   -0.5477 C   0  0  0  0  0  0  0  0  0  0  0  0
  -13.7693   44.9261   -2.4180 C   0  0  0  0  0  0  0  0  0  0  0  0
  -14.2879   45.2613   -1.2034 C   0  0  0  0  0  0  0  0  0  0  0  0
   -8.7466   47.1727    2.7714 C   0  0  0  0  0  0  0  0  0  0  0  0
  -14.1342   46.2215    1.1020 C   0  0  0  0  0  0  0  0  0  0  0  0
   -8.8105   42.1235   -0.5341 C   0  0  0  0  0  0  0  0  0  0  0  0
   -9.7905   43.1289    0.0013 C   0  0  0  0  0  0  0  0  0  0  0  0
   -8.0003   41.6567    0.6494 C   0  0  0  0  0  0  0  0  0  0  0  0
   -9.0278   44.3279    0.5286 C   0  0  0  0  0  0  0  0  0  0  0  0
   -7.2352   42.8250    1.2528 C   0  0  0  0  0  0  0  0  0  0  0  0
  -15.8151   44.2418   -2.3830 C   0  0  0  0  0  0  0  0  0  0  0  0
   -8.2067   43.8852    1.7159 C   0  0  0  0  0  0  0  0  0  0  0  0
  -11.8012   49.0948   -0.7052 C   0  0  0  0  0  0  0  0  0  0  0  0
  -10.6521   49.1353    1.4624 C   0  0  0  0  0  0  0  0  0  0  0  0
  -11.2557   46.9109    0.3984 C   0  0  0  0  0  0  0  0  0  0  0  0
   -7.5546   45.0783    2.4134 C   0  0  0  0  0  0  0  0  0  0  0  0
   -8.6050   45.8457    3.0570 N   0  0  0  0  0  0  0  0  0  0  0  0
  -11.5873   48.3747    0.5826 N   0  0  0  0  0  0  0  0  0  0  0  0
  -15.0799   45.4775    1.5042 O   0  0  0  0  0  0  0  0  0  0  0  0
   -8.0385   47.7033    1.9357 O   0  0  0  0  0  0  0  0  0  0  0  0
  -13.6465   47.1495    1.7920 O   0  0  0  0  0  0  0  0  0  0  0  0
  -14.6701   44.3060   -3.2355 O   0  0  0  0  0  0  0  0  0  0  0  0
  -15.6134   44.8747   -1.1141 O   0  0  0  0  0  0  0  0  0  0  0  0
  1  2  2  0
  1  3  1  0
  2  4  1  0
  5  6  2  0
  3  7  2  0
  4  9  2  0
  7  9  1  0
  5 10  1  0
  8 10  2  0
  6 11  1  0
  8 12  1  0
 11 12  2  0
  7 13  1  0
  8 14  1  0
 15 16  1  0
 15 17  1  0
 16 18  1  0
 17 19  1  0
 18 21  1  0
 19 21  1  0
  9 23  1  0
 10 24  1  0
 21 25  1  0
 13 26  1  0
 25 26  1  0
 22 27  1  0
 23 27  1  0
 24 27  1  0
 14 28  1  0
 13 29  2  0
 14 30  2  0
 11 31  1  0
 20 31  1  0
 12 32  1  0
 20 32  1  0
M  CHG  1  27   1
M  END
$$$$
