2E1W_FR6_A_1_
     RDKit          3D

 24 26  0  0  0  0  0  0  0  0999 V2000
   51.5229   54.3604   20.9144 C   0  0  0  0  0  0  0  0  0  0  0  0
   51.4664   55.3812   21.9738 N   0  0  0  0  0  0  0  0  0  0  0  0
   51.3400   54.7508   23.1424 C   0  0  0  0  0  0  0  0  0  0  0  0
   51.4770   53.4168   22.9965 N   0  0  0  0  0  0  0  0  0  0  0  0
   51.5281   53.1707   21.5393 C   0  0  0  0  0  0  0  0  0  0  0  0
   51.5550   51.8061   20.9315 C   0  0  0  0  0  0  0  0  0  0  0  0
   52.0467   51.5376   19.8454 O   0  0  0  0  0  0  0  0  0  0  0  0
   51.1023   50.8199   21.6723 N   0  0  0  0  0  0  0  0  0  0  0  0
   51.5602   56.8285   21.8017 C   0  0  0  0  0  0  0  0  0  0  0  0
   53.0614   57.3642   21.7720 C   0  0  0  0  0  0  0  0  0  0  0  0
   53.9802   57.0337   22.8728 O   0  0  0  0  0  0  0  0  0  0  0  0
   50.6788   57.3062   20.6275 C   0  0  0  0  0  0  0  0  0  0  0  0
   49.1378   57.2099   20.8362 C   0  0  0  0  0  0  0  0  0  0  0  0
   48.4244   57.6963   19.5816 C   0  0  0  0  0  0  0  0  0  0  0  0
   48.0349   59.0444   19.4791 C   0  0  0  0  0  0  0  0  0  0  0  0
   47.5307   59.5696   18.2873 C   0  0  0  0  0  0  0  0  0  0  0  0
   47.5110   58.7775   17.1380 C   0  0  0  0  0  0  0  0  0  0  0  0
   47.9044   57.4315   17.2145 C   0  0  0  0  0  0  0  0  0  0  0  0
   48.3896   56.8923   18.4173 C   0  0  0  0  0  0  0  0  0  0  0  0
   47.7577   56.6429   16.0605 C   0  0  0  0  0  0  0  0  0  0  0  0
   48.6738   55.5059   18.4699 C   0  0  0  0  0  0  0  0  0  0  0  0
   48.0881   55.2893   16.1171 C   0  0  0  0  0  0  0  0  0  0  0  0
   48.5101   54.7114   17.3198 C   0  0  0  0  0  0  0  0  0  0  0  0
   53.8208   57.1516   20.4346 C   0  0  0  0  0  0  0  0  0  0  0  0
  1  2  1  0
  2  3  1  0
  3  4  2  0
  1  5  2  0
  4  5  1  0
  5  6  1  0
  6  7  2  0
  6  8  1  0
  2  9  1  0
  9 10  1  0
 10 11  1  0
  9 12  1  0
 12 13  1  0
 13 14  1  0
 14 15  2  0
 15 16  1  0
 16 17  2  0
 17 18  1  0
 14 19  1  0
 18 19  2  0
 18 20  1  0
 19 21  1  0
 20 22  2  0
 21 23  2  0
 22 23  1  0
 10 24  1  0
M  END
$$$$
