1QXL_FR8_A_1001_
     RDKit          3D

 35 38  0  0  0  0  0  0  0  0999 V2000
   51.6200   54.4570   20.8610 C   0  0  0  0  0  0  0  0  0  0  0  0
   51.7420   55.4290   21.9490 N   0  0  0  0  0  0  0  0  0  0  0  0
   51.7530   54.7620   23.0990 C   0  0  0  0  0  0  0  0  0  0  0  0
   51.7180   53.4410   22.8880 N   0  0  0  0  0  0  0  0  0  0  0  0
   51.5590   53.2580   21.4380 C   0  0  0  0  0  0  0  0  0  0  0  0
   51.3510   51.9560   20.7490 C   0  0  0  0  0  0  0  0  0  0  0  0
   51.1170   51.9070   19.5500 O   0  0  0  0  0  0  0  0  0  0  0  0
   51.4620   50.8560   21.4520 N   0  0  0  0  0  0  0  0  0  0  0  0
   51.7290   56.8740   21.8040 C   0  0  0  0  0  0  0  0  0  0  0  0
   53.1720   57.4710   21.7480 C   0  0  0  0  0  0  0  0  0  0  0  0
   54.0170   56.8090   22.7800 O   0  0  0  0  0  0  0  0  0  0  0  0
   50.8830   57.2580   20.5730 C   0  0  0  0  0  0  0  0  0  0  0  0
   49.3530   57.1200   20.8080 C   0  0  0  0  0  0  0  0  0  0  0  0
   48.6800   57.3870   19.5050 N   0  0  0  0  0  0  0  0  0  0  0  0
   48.0790   58.5510   19.1000 C   0  0  0  0  0  0  0  0  0  0  0  0
   47.5980   58.3980   17.8000 C   0  0  0  0  0  0  0  0  0  0  0  0
   47.9190   57.0630   17.3840 C   0  0  0  0  0  0  0  0  0  0  0  0
   48.5830   56.4510   18.4910 C   0  0  0  0  0  0  0  0  0  0  0  0
   47.7070   56.3650   16.2330 C   0  0  0  0  0  0  0  0  0  0  0  0
   48.1520   55.0500   16.1290 C   0  0  0  0  0  0  0  0  0  0  0  0
   48.8100   54.4380   17.2310 C   0  0  0  0  0  0  0  0  0  0  0  0
   49.0050   55.1640   18.3980 C   0  0  0  0  0  0  0  0  0  0  0  0
   49.3280   53.1940   17.2310 N   0  0  0  0  0  0  0  0  0  0  0  0
   49.0430   52.2480   16.3380 C   0  0  0  0  0  0  0  0  0  0  0  0
   48.4270   52.3840   15.3020 O   0  0  0  0  0  0  0  0  0  0  0  0
   49.5660   50.9080   16.7700 C   0  0  0  0  0  0  0  0  0  0  0  0
   48.4510   49.8730   16.8750 C   0  0  0  0  0  0  0  0  0  0  0  0
   46.3970   47.1670   16.2550 C   0  0  0  0  0  0  0  0  0  0  0  0
   46.8070   47.4600   17.5560 C   0  0  0  0  0  0  0  0  0  0  0  0
   45.8770   47.5770   18.5710 C   0  0  0  0  0  0  0  0  0  0  0  0
   44.5550   47.2890   18.2950 C   0  0  0  0  0  0  0  0  0  0  0  0
   44.1590   46.9370   17.0080 C   0  0  0  0  0  0  0  0  0  0  0  0
   45.0680   46.8990   15.9670 C   0  0  0  0  0  0  0  0  0  0  0  0
   48.6290   49.0290   18.1250 C   0  0  0  0  0  0  0  0  0  0  0  0
   48.2440   47.5900   17.8670 C   0  0  0  0  0  0  0  0  0  0  0  0
  1  2  1  0
  2  3  1  0
  3  4  2  0
  1  5  2  0
  4  5  1  0
  5  6  1  0
  6  7  2  0
  6  8  1  0
  2  9  1  0
  9 10  1  0
 10 11  1  0
  9 12  1  0
 12 13  1  0
 13 14  1  0
 14 15  1  0
 15 16  2  0
 16 17  1  0
 14 18  1  0
 17 18  2  0
 17 19  1  0
 19 20  2  0
 20 21  1  0
 18 22  1  0
 21 22  2  0
 21 23  1  0
 23 24  1  0
 24 25  2  0
 24 26  1  0
 26 27  1  0
 28 29  2  0
 29 30  1  0
 30 31  2  0
 31 32  1  0
 28 33  1  0
 32 33  2  0
 27 34  1  0
 29 35  1  0
 34 35  1  0
M  END
$$$$
