1W1P_GIO_B_1501_
     RDKit          3D

 11 12  0  0  0  0  0  0  0  0999 V2000
   15.8216   43.7549   99.9637 O   0  0  0  0  0  0  0  0  0  0  0  0
   16.7703   43.6391  100.7382 C   0  0  0  0  0  0  0  0  0  0  0  0
   17.1165   44.7725  101.7034 C   0  0  0  0  0  0  0  0  0  0  0  0
   16.7679   46.1372  101.1069 C   0  0  0  0  0  0  0  0  0  0  0  0
   17.6173   47.0437  102.0007 C   0  0  0  0  0  0  0  0  0  0  0  0
   18.9729   46.3316  101.9657 C   0  0  0  0  0  0  0  0  0  0  0  0
   18.5703   44.9083  101.8784 N   0  0  0  0  0  0  0  0  0  0  0  0
   19.3703   43.7581  101.8404 C   0  0  0  0  0  0  0  0  0  0  0  0
   20.5907   43.8569  101.9653 O   0  0  0  0  0  0  0  0  0  0  0  0
   18.7435   42.3780  101.6223 C   0  0  0  0  0  0  0  0  0  0  0  0
   17.5611   42.4822  100.7348 N   0  0  0  0  0  0  0  0  0  0  0  0
  1  2  2  0
  2  3  1  0
  3  4  1  0
  4  5  1  0
  5  6  1  0
  3  7  1  0
  6  7  1  0
  7  8  1  0
  8  9  2  0
  8 10  1  0
  2 11  1  0
 10 11  1  0
M  END
$$$$
