2PE1_517_A_501_
     RDKit          3D

 21 23  0  0  0  0  0  0  0  0999 V2000
   -5.9003   39.0992   45.2990 N   0  0  0  0  0  0  0  0  0  0  0  0
   -5.2506   38.0297   45.7550 C   0  0  0  0  0  0  0  0  0  0  0  0
   -4.0317   38.4118   46.1086 C   0  0  0  0  0  0  0  0  0  0  0  0
   -3.9251   39.7157   45.8731 C   0  0  0  0  0  0  0  0  0  0  0  0
   -5.0874   40.1553   45.3706 C   0  0  0  0  0  0  0  0  0  0  0  0
   -5.3792   41.5029   45.0159 C   0  0  0  0  0  0  0  0  0  0  0  0
   -4.2380   42.5247   45.2031 C   0  0  0  0  0  0  0  0  0  0  0  0
   -6.6755   41.9423   44.5222 C   0  0  0  0  0  0  0  0  0  0  0  0
   -7.0067   43.2275   44.0427 C   0  0  0  0  0  0  0  0  0  0  0  0
   -6.2969   44.4398   43.8677 C   0  0  0  0  0  0  0  0  0  0  0  0
   -7.8535   41.1866   44.4099 C   0  0  0  0  0  0  0  0  0  0  0  0
   -8.0182   40.0193   44.7640 O   0  0  0  0  0  0  0  0  0  0  0  0
   -8.8311   41.9327   43.9014 N   0  0  0  0  0  0  0  0  0  0  0  0
   -8.3680   43.1665   43.6644 C   0  0  0  0  0  0  0  0  0  0  0  0
   -8.9974   44.2978   43.1211 C   0  0  0  0  0  0  0  0  0  0  0  0
   -8.2835   45.4921   42.9469 C   0  0  0  0  0  0  0  0  0  0  0  0
   -6.9233   45.5742   43.3174 C   0  0  0  0  0  0  0  0  0  0  0  0
   -6.1953   46.7123   43.1859 N   0  0  0  0  0  0  0  0  0  0  0  0
   -6.6132   47.8912   42.6568 C   0  0  0  0  0  0  0  0  0  0  0  0
   -7.7272   48.0602   42.1475 O   0  0  0  0  0  0  0  0  0  0  0  0
   -5.7170   48.8696   42.6525 N   0  0  0  0  0  0  0  0  0  0  0  0
  1  2  1  0
  2  3  2  0
  3  4  1  0
  1  5  1  0
  4  5  2  0
  5  6  1  0
  6  7  1  0
  6  8  1  0
  8  9  2  0
  9 10  1  0
  8 11  1  0
 11 12  2  0
 11 13  1  0
  9 14  1  0
 13 14  2  0
 14 15  1  0
 15 16  2  0
 10 17  2  0
 16 17  1  0
 17 18  1  0
 18 19  1  0
 19 20  2  0
 19 21  1  0
M  END
$$$$
