3S77_EVI_B_1_B
     RDKit          3D

  9  9  0  0  0  0  0  0  0  0999 V2000
   -6.0126    0.8342   16.7597 S   0  0  0  0  0  0  0  0  0  0  0  0
   -7.4391    1.0452   16.6658 O   0  0  0  0  0  0  0  0  0  0  0  0
   -6.0713    3.4263   15.1492 S   0  0  0  0  0  0  0  0  0  0  0  0
   -5.2802    2.1598   16.0171 C   0  0  0  0  0  0  0  0  0  0  0  0
   -5.6447    0.8401   18.1391 O   0  0  0  0  0  0  0  0  0  0  0  0
   -3.9821    2.3145   16.0587 N   0  0  0  0  0  0  0  0  0  0  0  0
   -3.5485    3.4261   15.3344 C   0  0  0  0  0  0  0  0  0  0  0  0
   -4.5813    4.1969   14.7590 C   0  0  0  0  0  0  0  0  0  0  0  0
   -5.3747   -0.4626   16.1494 N   0  0  0  0  0  0  0  0  0  0  0  0
  1  2  2  0
  1  4  1  0
  3  4  1  0
  1  5  2  0
  4  6  2  0
  6  7  1  0
  3  8  1  0
  7  8  2  0
  1  9  1  0
M  END
$$$$
