3DEH_RXA_C_300_
     RDKit          3D

 13 14  0  0  0  0  0  0  0  0999 V2000
  -45.1968   14.7526  -20.4328 O   0  0  0  0  0  0  0  0  0  0  0  0
  -46.4218   14.5265  -20.6441 C   0  0  0  0  0  0  0  0  0  0  0  0
  -47.1335   15.1514  -21.6278 N   0  0  0  0  0  0  0  0  0  0  0  0
  -47.0344   13.5928  -19.8237 C   0  0  0  0  0  0  0  0  0  0  0  0
  -46.3179   13.0516  -18.9508 O   0  0  0  0  0  0  0  0  0  0  0  0
  -48.3934   13.2821  -20.0047 C   0  0  0  0  0  0  0  0  0  0  0  0
  -49.1188   13.9314  -21.0200 C   0  0  0  0  0  0  0  0  0  0  0  0
  -50.4851   13.6313  -21.2025 C   0  0  0  0  0  0  0  0  0  0  0  0
  -48.4658   14.8920  -21.8368 C   0  0  0  0  0  0  0  0  0  0  0  0
  -49.1094   15.5044  -22.7612 O   0  0  0  0  0  0  0  0  0  0  0  0
  -49.0285   12.3281  -19.1984 C   0  0  0  0  0  0  0  0  0  0  0  0
  -50.3911   12.0204  -19.3749 C   0  0  0  0  0  0  0  0  0  0  0  0
  -51.1280   12.6807  -20.3768 C   0  0  0  0  0  0  0  0  0  0  0  0
  1  2  2  0
  2  3  1  0
  2  4  1  0
  4  5  2  0
  4  6  1  0
  6  7  2  0
  7  8  1  0
  3  9  1  0
  7  9  1  0
  9 10  2  0
  6 11  1  0
 11 12  2  0
  8 13  2  0
 12 13  1  0
M  END
$$$$
