3OW6_MEX_A_1_
     RDKit          3D

 18 20  0  0  0  0  0  0  0  0999 V2000
   -0.7252   10.1066   23.5805 C   0  0  0  0  0  0  0  0  0  0  0  0
    0.5028    9.8278   23.0080 C   0  0  0  0  0  0  0  0  0  0  0  0
    1.6562   10.3350   23.5676 C   0  0  0  0  0  0  0  0  0  0  0  0
    1.6580   11.0641   24.7417 C   0  0  0  0  0  0  0  0  0  0  0  0
    0.4160   11.3227   25.3106 C   0  0  0  0  0  0  0  0  0  0  0  0
   -0.7575   10.8648   24.7369 C   0  0  0  0  0  0  0  0  0  0  0  0
    0.3347   12.0238   26.5156 O   0  0  0  0  0  0  0  0  0  0  0  0
    2.8477   10.0221   22.9408 O   0  0  0  0  0  0  0  0  0  0  0  0
    0.6342    9.0091   21.8475 N   0  0  0  0  0  0  0  0  0  0  0  0
    0.3216    7.6429   21.8149 C   0  0  0  0  0  0  0  0  0  0  0  0
    0.4812    7.2223   20.5210 C   0  0  0  0  0  0  0  0  0  0  0  0
    0.8868    8.3063   19.7478 N   0  0  0  0  0  0  0  0  0  0  0  0
    1.0036    9.4197   20.5880 C   0  0  0  0  0  0  0  0  0  0  0  0
   -0.0441    6.7847   22.8171 C   0  0  0  0  0  0  0  0  0  0  0  0
   -0.2513    5.4733   22.4499 C   0  0  0  0  0  0  0  0  0  0  0  0
   -0.1033    5.0494   21.1411 C   0  0  0  0  0  0  0  0  0  0  0  0
    0.2698    5.9174   20.1366 C   0  0  0  0  0  0  0  0  0  0  0  0
    1.3236   10.5547   20.2776 O   0  0  0  0  0  0  0  0  0  0  0  0
  1  2  2  0
  2  3  1  0
  3  4  2  0
  4  5  1  0
  1  6  1  0
  5  6  2  0
  5  7  1  0
  3  8  1  0
  2  9  1  0
  9 10  1  0
 10 11  2  0
 11 12  1  0
  9 13  1  0
 12 13  1  0
 10 14  1  0
 14 15  2  0
 15 16  1  0
 11 17  1  0
 16 17  2  0
 13 18  2  0
M  END
$$$$
