3OWD_MEY_A_1_
     RDKit          3D

 34 38  0  0  0  0  0  0  0  0999 V2000
   -3.8920    8.1520   23.8240 C   0  0  0  0  0  0  0  0  0  0  0  0
   -3.8990    6.8010   24.1600 C   0  0  0  0  0  0  0  0  0  0  0  0
   -3.4850    7.0920   19.1550 C   0  0  0  0  0  0  0  0  0  0  0  0
   -3.7850    8.5440   22.5040 C   0  0  0  0  0  0  0  0  0  0  0  0
   -3.8080    5.8550   23.1500 C   0  0  0  0  0  0  0  0  0  0  0  0
   -3.5780    7.9990   20.1880 C   0  0  0  0  0  0  0  0  0  0  0  0
   -0.5250    5.6400   22.5430 C   0  0  0  0  0  0  0  0  0  0  0  0
   -0.2030    6.9560   22.8600 C   0  0  0  0  0  0  0  0  0  0  0  0
   -3.5000    5.7490   19.4500 C   0  0  0  0  0  0  0  0  0  0  0  0
    0.0160    5.9520   20.2220 C   0  0  0  0  0  0  0  0  0  0  0  0
   -0.6070   10.3890   23.3900 C   0  0  0  0  0  0  0  0  0  0  0  0
    1.7250   11.0630   24.7330 C   0  0  0  0  0  0  0  0  0  0  0  0
   -3.6800    7.5920   21.5070 C   0  0  0  0  0  0  0  0  0  0  0  0
   -3.7170    6.2440   21.8270 C   0  0  0  0  0  0  0  0  0  0  0  0
   -0.4490    5.1350   21.2490 C   0  0  0  0  0  0  0  0  0  0  0  0
    0.2400    7.7510   21.8160 C   0  0  0  0  0  0  0  0  0  0  0  0
    0.3620    7.2480   20.5470 C   0  0  0  0  0  0  0  0  0  0  0  0
    0.6140    9.9770   22.8910 C   0  0  0  0  0  0  0  0  0  0  0  0
    1.7750   10.3570   23.5490 C   0  0  0  0  0  0  0  0  0  0  0  0
    0.4930   11.4180   25.2460 C   0  0  0  0  0  0  0  0  0  0  0  0
   -3.6160    5.3480   20.7690 C   0  0  0  0  0  0  0  0  0  0  0  0
   -0.6570   11.1480   24.5360 C   0  0  0  0  0  0  0  0  0  0  0  0
    1.0950    9.3910   20.4980 C   0  0  0  0  0  0  0  0  0  0  0  0
   -0.8510    3.7170   20.9460 C   0  0  0  0  0  0  0  0  0  0  0  0
    0.8820    8.2690   19.7050 N   0  0  0  0  0  0  0  0  0  0  0  0
    0.6910    9.0770   21.7940 N   0  0  0  0  0  0  0  0  0  0  0  0
   -2.0360    3.2630   21.7210 N   0  0  0  0  0  0  0  0  0  0  0  0
    1.5110   10.4830   20.1350 O   0  0  0  0  0  0  0  0  0  0  0  0
   -4.5480    3.1780   21.9790 O   0  0  0  0  0  0  0  0  0  0  0  0
   -3.5760    3.0080   19.6750 O   0  0  0  0  0  0  0  0  0  0  0  0
    2.9960   10.0480   22.9820 O   0  0  0  0  0  0  0  0  0  0  0  0
    0.4060   12.1280   26.4350 O   0  0  0  0  0  0  0  0  0  0  0  0
   -3.5530    3.5770   21.0000 S   0  0  0  0  0  0  0  0  0  0  0  0
   -2.2050   11.6910   25.1340 Cl  0  0  0  0  0  0  0  0  0  0  0  0
  1  2  2  0
  1  4  1  0
  2  5  1  0
  3  6  2  0
  7  8  2  0
  3  9  1  0
  4 13  2  0
  6 13  1  0
  5 14  2  0
 13 14  1  0
  7 15  1  0
 10 15  2  0
  8 16  1  0
 10 17  1  0
 16 17  2  0
 11 18  2  0
 12 19  2  0
 18 19  1  0
 12 20  1  0
  9 21  2  0
 14 21  1  0
 11 22  1  0
 20 22  2  0
 15 24  1  0
 17 25  1  0
 23 25  1  0
 16 26  1  0
 18 26  1  0
 23 26  1  0
 24 27  1  0
 23 28  2  0
 19 31  1  0
 20 32  1  0
 21 33  1  0
 27 33  1  0
 29 33  2  0
 30 33  2  0
 22 34  1  0
M  END
$$$$
