1KYN_KTP_A_601_
     RDKit          3D

 27 30  0  0  0  0  0  0  0  0999 V2000
   10.1546   67.3725    6.8213 P   0  0  0  0  0  0  0  0  0  0  0  0
   10.2787   66.4035    5.7101 O   0  0  0  0  0  0  0  0  0  0  0  0
    9.2822   70.9552    5.1047 O   0  0  0  0  0  0  0  0  0  0  0  0
   10.6293   69.1571    6.3756 C   0  0  0  0  0  0  0  0  0  0  0  0
   10.0841   70.1045    4.9810 C   0  0  0  0  0  0  0  0  0  0  0  0
    8.6165   67.2434    7.2870 O   0  0  0  0  0  0  0  0  0  0  0  0
   11.0895   66.8086    7.9985 O   0  0  0  0  0  0  0  0  0  0  0  0
   10.4300   70.0878    3.4729 C   0  0  0  0  0  0  0  0  0  0  0  0
   11.3822   69.1591    3.0070 C   0  0  0  0  0  0  0  0  0  0  0  0
   11.7436   69.0953    1.6500 C   0  0  0  0  0  0  0  0  0  0  0  0
   12.6980   68.1583    1.2120 C   0  0  0  0  0  0  0  0  0  0  0  0
   13.0518   68.1029   -0.1531 C   0  0  0  0  0  0  0  0  0  0  0  0
   12.4458   69.0021   -1.0938 C   0  0  0  0  0  0  0  0  0  0  0  0
   11.4773   69.9550   -0.6642 C   0  0  0  0  0  0  0  0  0  0  0  0
   11.1202   70.0123    0.6883 C   0  0  0  0  0  0  0  0  0  0  0  0
   10.1748   70.9433    1.1313 C   0  0  0  0  0  0  0  0  0  0  0  0
    9.8324   70.9807    2.5059 C   0  0  0  0  0  0  0  0  0  0  0  0
    9.2403   69.8434    8.4735 C   0  0  0  0  0  0  0  0  0  0  0  0
   10.4350   69.9474    7.7213 C   0  0  0  0  0  0  0  0  0  0  0  0
   11.5062   70.8247    8.2383 C   0  0  0  0  0  0  0  0  0  0  0  0
   12.7363   70.9923    7.5460 C   0  0  0  0  0  0  0  0  0  0  0  0
   13.7546   71.8503    8.0729 C   0  0  0  0  0  0  0  0  0  0  0  0
   13.5438   72.5483    9.3045 C   0  0  0  0  0  0  0  0  0  0  0  0
   12.3064   72.3906   10.0192 C   0  0  0  0  0  0  0  0  0  0  0  0
   11.2937   71.5477    9.5061 C   0  0  0  0  0  0  0  0  0  0  0  0
   10.0807   71.3966   10.2073 C   0  0  0  0  0  0  0  0  0  0  0  0
    9.0565   70.5487    9.6934 C   0  0  0  0  0  0  0  0  0  0  0  0
  1  2  2  0
  1  4  1  0
  3  5  2  0
  4  5  1  0
  1  6  1  0
  1  7  1  0
  5  8  1  0
  8  9  2  0
  9 10  1  0
 10 11  2  0
 11 12  1  0
 12 13  2  0
 13 14  1  0
 10 15  1  0
 14 15  2  0
 15 16  1  0
  8 17  1  0
 16 17  2  0
  4 19  1  0
 18 19  2  0
 19 20  1  0
 20 21  2  0
 21 22  1  0
 22 23  2  0
 23 24  1  0
 20 25  1  0
 24 25  2  0
 25 26  1  0
 18 27  1  0
 26 27  2  0
M  END
$$$$
