2GD8_PO1_A_264_
     RDKit          3D

 30 33  0  0  0  0  0  0  0  0999 V2000
   -0.0580    8.8890   11.9170 C   0  0  0  0  0  0  0  0  0  0  0  0
   -0.7450    8.9780   13.1530 C   0  0  0  0  0  0  0  0  0  0  0  0
    2.5890    9.4290   12.6310 O   0  0  0  0  0  0  0  0  0  0  0  0
    2.1890   10.2280   11.5220 S   0  0  0  0  0  0  0  0  0  0  0  0
    2.6440    9.9240   10.2120 O   0  0  0  0  0  0  0  0  0  0  0  0
    2.5120   11.7420   11.8410 N   0  0  0  0  0  0  0  0  0  0  0  0
    0.5830   10.0720   11.4240 O   0  0  0  0  0  0  0  0  0  0  0  0
   -1.3730    7.8210   13.6490 C   0  0  0  0  0  0  0  0  0  0  0  0
   -1.3520    6.5550   12.9750 C   0  0  0  0  0  0  0  0  0  0  0  0
   -0.6500    6.4970   11.7250 C   0  0  0  0  0  0  0  0  0  0  0  0
   -0.0110    7.6490   11.2080 C   0  0  0  0  0  0  0  0  0  0  0  0
   -0.8580   10.1200   13.9220 O   0  0  0  0  0  0  0  0  0  0  0  0
   -0.1290   10.2340   15.1330 C   0  0  0  0  0  0  0  0  0  0  0  0
   -2.0400    5.3220   13.5740 C   0  0  0  0  0  0  0  0  0  0  0  0
   -2.4130    4.2730   12.4590 C   0  0  0  0  0  0  0  0  0  0  0  0
   -1.1590    3.9480   11.6180 C   0  0  0  0  0  0  0  0  0  0  0  0
   -0.5640    5.1970   10.9220 C   0  0  0  0  0  0  0  0  0  0  0  0
   -3.2820    5.7030   14.4500 C   0  0  0  0  0  0  0  0  0  0  0  0
   -3.9730    4.4550   15.0820 C   0  0  0  0  0  0  0  0  0  0  0  0
   -4.3470    3.4060   14.0390 C   0  0  0  0  0  0  0  0  0  0  0  0
   -3.0710    3.0720   13.1900 C   0  0  0  0  0  0  0  0  0  0  0  0
   -5.5810    3.9170   13.2430 C   0  0  0  0  0  0  0  0  0  0  0  0
   -4.5510    1.9600   14.5510 C   0  0  0  0  0  0  0  0  0  0  0  0
   -4.5030    1.1010   13.2950 C   0  0  0  0  0  0  0  0  0  0  0  0
   -3.5290    1.8400   12.3610 C   0  0  0  0  0  0  0  0  0  0  0  0
   -5.8300    1.8250   15.2350 O   0  0  0  0  0  0  0  0  0  0  0  0
   -5.8960    0.9570   16.5670 S   0  0  0  0  0  0  0  0  0  0  0  0
   -7.2760    0.9830   16.9230 O   0  0  0  0  0  0  0  0  0  0  0  0
   -4.9520    1.5590   17.4760 O   0  0  0  0  0  0  0  0  0  0  0  0
   -5.4350   -0.4940   16.1730 N   0  0  0  0  0  0  0  0  0  0  0  0
  1  2  2  0
  3  4  2  0
  4  5  2  0
  4  6  1  0
  1  7  1  0
  4  7  1  0
  2  8  1  0
  8  9  2  0
  9 10  1  0
  1 11  1  0
 10 11  2  0
  2 12  1  0
 12 13  1  0
  9 14  1  0
 14 15  1  0
 15 16  1  0
 10 17  1  0
 16 17  1  0
 14 18  1  0
 18 19  1  0
 19 20  1  0
 15 21  1  0
 20 21  1  0
 20 22  1  0
 20 23  1  0
 23 24  1  0
 21 25  1  0
 24 25  1  0
 23 26  1  0
 26 27  1  0
 27 28  2  0
 27 29  2  0
 27 30  1  0
M  END
$$$$
