4F08_1RS_A_1201_
     RDKit          3D

 18 21  0  0  0  0  0  0  0  0999 V2000
   12.7171   29.3789    9.3542 C   0  0  0  0  0  0  0  0  0  0  0  0
   13.0137   30.2230   10.2729 N   0  0  0  0  0  0  0  0  0  0  0  0
   12.9338   29.6180   11.4579 C   0  0  0  0  0  0  0  0  0  0  0  0
   13.1510   30.0687   12.7437 C   0  0  0  0  0  0  0  0  0  0  0  0
   13.0087   29.2694   13.7490 N   0  0  0  0  0  0  0  0  0  0  0  0
   12.6497   28.0151   13.6118 C   0  0  0  0  0  0  0  0  0  0  0  0
   12.4074   27.4774   12.3513 C   0  0  0  0  0  0  0  0  0  0  0  0
   12.5531   28.2949   11.2328 C   0  0  0  0  0  0  0  0  0  0  0  0
   12.4209   28.1800    9.8819 N   0  0  0  0  0  0  0  0  0  0  0  0
   12.0604   27.0426    9.0548 C   0  0  0  0  0  0  0  0  0  0  0  0
   10.5906   26.7042    8.9468 C   0  0  0  0  0  0  0  0  0  0  0  0
   10.4748   25.8723    7.6775 C   0  0  0  0  0  0  0  0  0  0  0  0
   11.3195   24.6847    7.7655 N   0  0  0  0  0  0  0  0  0  0  0  0
   12.7326   24.9994    7.9508 C   0  0  0  0  0  0  0  0  0  0  0  0
   12.8888   25.7900    9.2376 C   0  0  0  0  0  0  0  0  0  0  0  0
   12.0406   26.0924   12.5822 C   0  0  0  0  0  0  0  0  0  0  0  0
   12.0773   25.8925   13.8978 C   0  0  0  0  0  0  0  0  0  0  0  0
   12.4443   27.0318   14.5262 N   0  0  0  0  0  0  0  0  0  0  0  0
  1  2  2  0
  2  3  1  0
  3  4  2  0
  4  5  1  0
  5  6  2  0
  6  7  1  0
  3  8  1  0
  7  8  2  0
  1  9  1  0
  8  9  1  0
  9 10  1  0
 10 11  1  0
 11 12  1  0
 12 13  1  0
 13 14  1  0
 10 15  1  0
 14 15  1  0
  7 16  1  0
 16 17  2  0
  6 18  1  0
 17 18  1  0
M  END
$$$$
