4HA5_13W_A_502_
     RDKit          3D

 23 25  0  0  0  0  0  0  0  0999 V2000
   14.9312   34.0344   53.6331 C   0  0  0  0  0  0  0  0  0  0  0  0
   14.2272   34.4369   54.7926 C   0  0  0  0  0  0  0  0  0  0  0  0
   14.9546   34.7908   55.9523 C   0  0  0  0  0  0  0  0  0  0  0  0
   16.3640   34.7461   55.9594 C   0  0  0  0  0  0  0  0  0  0  0  0
   17.0990   34.3468   54.8029 C   0  0  0  0  0  0  0  0  0  0  0  0
   16.3526   33.9868   53.6362 C   0  0  0  0  0  0  0  0  0  0  0  0
   18.5773   34.3005   54.8321 C   0  0  0  0  0  0  0  0  0  0  0  0
   19.3486   34.8150   55.9022 C   0  0  0  0  0  0  0  0  0  0  0  0
   20.7201   34.6457   55.6949 C   0  0  0  0  0  0  0  0  0  0  0  0
   21.0151   33.8651   54.2159 S   0  0  0  0  0  0  0  0  0  0  0  0
   19.3803   33.7433   53.8251 C   0  0  0  0  0  0  0  0  0  0  0  0
   21.8612   35.0713   56.6262 C   0  0  0  0  0  0  0  0  0  0  0  0
   22.5589   33.8057   57.1821 C   0  0  0  0  0  0  0  0  0  0  0  0
   21.7528   33.1275   58.3204 C   0  0  0  0  0  0  0  0  0  0  0  0
   20.9320   33.9622   59.0911 N   0  0  0  0  0  0  0  0  0  0  0  0
   20.8661   35.3393   58.9161 C   0  0  0  0  0  0  0  0  0  0  0  0
   21.3292   35.8892   57.7441 N   0  0  0  0  0  0  0  0  0  0  0  0
   20.3624   36.1379   59.8620 N   0  0  0  0  0  0  0  0  0  0  0  0
   22.8585   35.9459   55.8406 C   0  0  0  0  0  0  0  0  0  0  0  0
   20.1111   33.2732   60.1344 C   0  0  0  0  0  0  0  0  0  0  0  0
   21.8465   31.9156   58.5019 O   0  0  0  0  0  0  0  0  0  0  0  0
   14.2685   35.2043   57.1489 C   0  0  0  0  0  0  0  0  0  0  0  0
   13.7452   35.5416   58.1265 N   0  0  0  0  0  0  0  0  0  0  0  0
  1  2  2  0
  2  3  1  0
  3  4  2  0
  4  5  1  0
  1  6  1  0
  5  6  2  0
  5  7  1  0
  7  8  1  0
  8  9  2  0
  9 10  1  0
 10 11  1  0
  7 11  2  0
  9 12  1  0
 12 13  1  0
 13 14  1  0
 14 15  1  0
 15 16  1  0
 12 17  1  0
 16 17  1  0
 16 18  2  0
 12 19  1  0
 15 20  1  0
 14 21  2  0
  3 22  1  0
 22 23  3  0
M  END
$$$$
