3IBU_O48_A_300_
     RDKit          3D

 15 14  0  0  0  0  0  0  0  0999 V2000
   20.4622   27.8711   18.5771 C   0  0  0  0  0  0  0  0  0  0  0  0
   19.7144   24.9890   18.1589 N   0  0  0  0  0  0  0  0  0  0  0  0
   17.9776   26.1516   19.4487 O   0  0  0  0  0  0  0  0  0  0  0  0
   19.3170   25.6884   19.5157 S   0  0  0  0  0  0  0  0  0  0  0  0
   19.6601   29.1346   18.8331 C   0  0  0  0  0  0  0  0  0  0  0  0
   19.6870   24.8319   20.5859 O   0  0  0  0  0  0  0  0  0  0  0  0
   20.0148   29.8772   20.1154 C   0  0  0  0  0  0  0  0  0  0  0  0
   20.2399   26.9576   19.6973 O   0  0  0  0  0  0  0  0  0  0  0  0
   21.3103   30.6549   20.0733 C   0  0  0  0  0  0  0  0  0  0  0  0
   21.6188   31.3469   21.3766 C   0  0  0  0  0  0  0  0  0  0  0  0
   22.9361   32.0631   21.3975 C   0  0  0  0  0  0  0  0  0  0  0  0
   23.2593   32.6923   22.7299 C   0  0  0  0  0  0  0  0  0  0  0  0
   24.6685   33.2108   22.8144 C   0  0  0  0  0  0  0  0  0  0  0  0
   24.9093   34.1882   23.9391 C   0  0  0  0  0  0  0  0  0  0  0  0
   25.3410   33.5621   25.2295 C   0  0  0  0  0  0  0  0  0  0  0  0
  2  4  1  0
  3  4  2  0
  1  5  1  0
  4  6  2  0
  5  7  1  0
  1  8  1  0
  4  8  1  0
  7  9  1  0
  9 10  1  0
 10 11  1  0
 11 12  1  0
 12 13  1  0
 13 14  1  0
 14 15  1  0
M  END
$$$$
