2E2R_2OH_A_1401_
     RDKit          3D

 17 18  0  0  0  0  0  0  0  0999 V2000
   47.2538  -23.3716  -95.1731 O   0  0  0  0  0  0  0  0  0  0  0  0
   47.5336  -24.6471  -95.4712 C   0  0  0  0  0  0  0  0  0  0  0  0
   46.7658  -25.3172  -96.4188 C   0  0  0  0  0  0  0  0  0  0  0  0
   47.0381  -26.6569  -96.7093 C   0  0  0  0  0  0  0  0  0  0  0  0
   48.5895  -25.3304  -94.8628 C   0  0  0  0  0  0  0  0  0  0  0  0
   48.8669  -26.6699  -95.1672 C   0  0  0  0  0  0  0  0  0  0  0  0
   48.0932  -27.3631  -96.1100 C   0  0  0  0  0  0  0  0  0  0  0  0
   48.3460  -28.8247  -96.4462 C   0  0  0  0  0  0  0  0  0  0  0  0
   49.6805  -29.3494  -95.9127 C   0  0  0  0  0  0  0  0  0  0  0  0
   47.2707  -29.6124  -95.7052 C   0  0  0  0  0  0  0  0  0  0  0  0
   48.3016  -29.0297  -97.9478 C   0  0  0  0  0  0  0  0  0  0  0  0
   49.3525  -28.5390  -98.7155 C   0  0  0  0  0  0  0  0  0  0  0  0
   49.3690  -28.6850 -100.0911 C   0  0  0  0  0  0  0  0  0  0  0  0
   47.2468  -29.6683  -98.6030 C   0  0  0  0  0  0  0  0  0  0  0  0
   47.2775  -29.8141  -99.9983 C   0  0  0  0  0  0  0  0  0  0  0  0
   48.3292  -29.3215 -100.7440 C   0  0  0  0  0  0  0  0  0  0  0  0
   48.3642  -29.4555 -102.0843 O   0  0  0  0  0  0  0  0  0  0  0  0
  1  2  1  0
  2  3  2  0
  3  4  1  0
  2  5  1  0
  5  6  2  0
  4  7  2  0
  6  7  1  0
  7  8  1  0
  8  9  1  0
  8 10  1  0
  8 11  1  0
 11 12  2  0
 12 13  1  0
 11 14  1  0
 14 15  2  0
 13 16  2  0
 15 16  1  0
 16 17  1  0
M  END
$$$$
