4E3D_GTQ_A_303_
     RDKit          3D

 11 11  0  0  0  0  0  0  0  0999 V2000
   15.3500    2.1830   15.9970 O   0  0  0  0  0  0  0  0  0  0  0  0
   17.5870    1.8570   15.9730 O   0  0  0  0  0  0  0  0  0  0  0  0
   19.3590    5.9540   13.6850 O   0  0  0  0  0  0  0  0  0  0  0  0
   14.4120    4.0670   14.8440 O   0  0  0  0  0  0  0  0  0  0  0  0
   17.0170    6.2110   13.5670 C   0  0  0  0  0  0  0  0  0  0  0  0
   15.7570    5.7290   13.9080 C   0  0  0  0  0  0  0  0  0  0  0  0
   18.0000    4.2460   14.5570 C   0  0  0  0  0  0  0  0  0  0  0  0
   16.5510    2.4600   15.6140 C   0  0  0  0  0  0  0  0  0  0  0  0
   18.1060    5.4670   13.9090 C   0  0  0  0  0  0  0  0  0  0  0  0
   15.6430    4.5300   14.5160 C   0  0  0  0  0  0  0  0  0  0  0  0
   16.7380    3.7470   14.8820 C   0  0  0  0  0  0  0  0  0  0  0  0
  5  6  2  0
  1  8  1  0
  2  8  2  0
  3  9  1  0
  5  9  1  0
  7  9  2  0
  4 10  1  0
  6 10  1  0
  7 11  1  0
  8 11  1  0
 10 11  2  0
M  END
$$$$
