4EH6_0ON_A_402_
     RDKit          3D

 15 16  0  0  0  0  0  0  0  0999 V2000
   -3.2343    1.0096   17.2387 C   0  0  0  0  0  0  0  0  0  0  0  0
   -3.5857    1.7138   16.0978 C   0  0  0  0  0  0  0  0  0  0  0  0
   -4.9195    1.7673   15.7170 C   0  0  0  0  0  0  0  0  0  0  0  0
   -5.8954    1.1303   16.4730 C   0  0  0  0  0  0  0  0  0  0  0  0
   -5.5596    0.4358   17.6249 C   0  0  0  0  0  0  0  0  0  0  0  0
   -4.2210    0.3761   18.0037 C   0  0  0  0  0  0  0  0  0  0  0  0
   -3.9112   -0.3102   19.1046 N   0  0  0  0  0  0  0  0  0  0  0  0
   -3.3378    0.2417   20.1811 C   0  0  0  0  0  0  0  0  0  0  0  0
   -2.9997    1.4286   20.2600 O   0  0  0  0  0  0  0  0  0  0  0  0
   -3.1335   -0.7469   21.3598 C   0  0  0  0  0  0  0  0  0  0  0  0
   -3.2915   -0.3065   22.6797 C   0  0  0  0  0  0  0  0  0  0  0  0
   -3.1105   -1.2263   23.7115 C   0  0  0  0  0  0  0  0  0  0  0  0
   -2.7833   -2.5497   23.3779 C   0  0  0  0  0  0  0  0  0  0  0  0
   -2.6505   -2.9444   22.1105 N   0  0  0  0  0  0  0  0  0  0  0  0
   -2.8188   -2.0927   21.1076 C   0  0  0  0  0  0  0  0  0  0  0  0
  1  2  2  0
  2  3  1  0
  3  4  2  0
  4  5  1  0
  1  6  1  0
  5  6  2  0
  6  7  1  0
  7  8  1  0
  8  9  2  0
  8 10  1  0
 10 11  2  0
 11 12  1  0
 12 13  2  0
 13 14  1  0
 10 15  1  0
 14 15  2  0
M  END
$$$$
