3BV2_P38_A_501_
     RDKit          3D

 44 49  0  0  0  0  0  0  0  0999 V2000
   -4.6210   -2.3900   28.1990 C   0  0  0  0  0  0  0  0  0  0  0  0
   -3.3940   -2.0640   27.5530 C   0  0  0  0  0  0  0  0  0  0  0  0
   -2.6750   -3.1160   26.9230 C   0  0  0  0  0  0  0  0  0  0  0  0
   -0.2280   -3.6620   26.6750 C   0  0  0  0  0  0  0  0  0  0  0  0
   -5.1040   -3.7340   28.2120 C   0  0  0  0  0  0  0  0  0  0  0  0
   -4.3950   -4.7980   27.5870 C   0  0  0  0  0  0  0  0  0  0  0  0
   -3.1650   -4.4680   26.9360 C   0  0  0  0  0  0  0  0  0  0  0  0
   -3.6960    0.7600   17.8220 C   0  0  0  0  0  0  0  0  0  0  0  0
   -5.1580    0.7550   17.3610 C   0  0  0  0  0  0  0  0  0  0  0  0
   -2.2820   -2.5240   23.7620 C   0  0  0  0  0  0  0  0  0  0  0  0
    1.0670    2.4780   13.4420 C   0  0  0  0  0  0  0  0  0  0  0  0
   -3.1380    1.9920   15.7970 C   0  0  0  0  0  0  0  0  0  0  0  0
   -0.1410    3.0770   13.8620 C   0  0  0  0  0  0  0  0  0  0  0  0
   -2.5110    0.7680   22.4150 N   0  0  0  0  0  0  0  0  0  0  0  0
   -2.4590    2.2540   22.4020 N   0  0  0  0  0  0  0  0  0  0  0  0
   -2.4540    2.8430   21.1750 C   0  0  0  0  0  0  0  0  0  0  0  0
   -2.8990    2.1270   20.0870 N   0  0  0  0  0  0  0  0  0  0  0  0
   -3.0100    0.7870   20.1140 C   0  0  0  0  0  0  0  0  0  0  0  0
   -2.7790    0.0060   21.2370 C   0  0  0  0  0  0  0  0  0  0  0  0
   -2.7130   -1.4730   21.5090 C   0  0  0  0  0  0  0  0  0  0  0  0
   -2.4500   -1.5140   22.8980 C   0  0  0  0  0  0  0  0  0  0  0  0
   -2.3150   -0.1640   23.3680 C   0  0  0  0  0  0  0  0  0  0  0  0
   -2.8580   -2.6610   20.5020 C   0  0  0  0  0  0  0  0  0  0  0  0
   -2.5680   -3.6960   23.4820 O   0  0  0  0  0  0  0  0  0  0  0  0
   -1.6840   -2.0030   24.9620 N   0  0  0  0  0  0  0  0  0  0  0  0
   -1.4190   -2.7940   26.2730 C   0  0  0  0  0  0  0  0  0  0  0  0
   -3.3300    0.1510   18.9590 N   0  0  0  0  0  0  0  0  0  0  0  0
   -5.5350    1.4210   16.0450 C   0  0  0  0  0  0  0  0  0  0  0  0
   -4.5020    1.9940   15.3150 C   0  0  0  0  0  0  0  0  0  0  0  0
   -2.7150    1.3850   17.0610 C   0  0  0  0  0  0  0  0  0  0  0  0
   -6.3420    0.0670   18.1160 C   0  0  0  0  0  0  0  0  0  0  0  0
   -2.2140    2.6620   14.9740 N   0  0  0  0  0  0  0  0  0  0  0  0
   -0.8420    2.3370   14.8910 C   0  0  0  0  0  0  0  0  0  0  0  0
   -0.1690    1.5720   15.6070 O   0  0  0  0  0  0  0  0  0  0  0  0
    1.9020    3.1080   12.4600 C   0  0  0  0  0  0  0  0  0  0  0  0
    1.4660    4.2550   11.9600 N   0  0  0  0  0  0  0  0  0  0  0  0
    0.2560    4.7960   12.3830 C   0  0  0  0  0  0  0  0  0  0  0  0
   -0.6150    4.3310   13.3230 C   0  0  0  0  0  0  0  0  0  0  0  0
    3.1150    2.5080   12.0900 N   0  0  0  0  0  0  0  0  0  0  0  0
    3.4800    1.2660   12.8530 C   0  0  0  0  0  0  0  0  0  0  0  0
    4.5050    0.4330   12.1230 C   0  0  0  0  0  0  0  0  0  0  0  0
    5.5990    1.2240   11.8600 O   0  0  0  0  0  0  0  0  0  0  0  0
    5.3920    2.4260   11.0600 C   0  0  0  0  0  0  0  0  0  0  0  0
    4.2530    3.3140   11.5620 C   0  0  0  0  0  0  0  0  0  0  0  0
  1  2  2  0
  2  3  1  0
  1  5  1  0
  5  6  2  0
  3  7  2  0
  6  7  1  0
  8  9  2  0
 11 13  2  0
 14 15  1  0
 15 16  2  0
 16 17  1  0
 17 18  2  0
 14 19  1  0
 18 19  1  0
 19 20  2  0
 10 21  1  0
 20 21  1  0
 14 22  1  0
 21 22  2  0
 20 23  1  0
 10 24  2  0
 10 25  1  0
  3 26  1  0
  4 26  2  0
 25 26  1  0
  8 27  1  0
 18 27  1  0
  9 28  1  0
 12 29  1  0
 28 29  2  0
  8 30  1  0
 12 30  2  0
  9 31  1  0
 12 32  1  0
 13 33  1  0
 32 33  1  0
 33 34  2  0
 11 35  1  0
 35 36  2  0
 36 37  1  0
 13 38  1  0
 37 38  2  0
 35 39  1  0
 39 40  1  0
 40 41  1  0
 41 42  1  0
 42 43  1  0
 39 44  1  0
 43 44  1  0
M  END
$$$$
