2NNG_ZYX_A_301_
     RDKit          3D

 13 13  0  0  0  0  0  0  0  0999 V2000
   -5.2034    2.4519   15.7086 C   0  0  0  0  0  0  0  0  0  0  0  0
   -3.8505    2.4495   15.3934 C   0  0  0  0  0  0  0  0  0  0  0  0
   -3.3359    3.5249   14.6671 C   0  0  0  0  0  0  0  0  0  0  0  0
   -4.1353    4.5769   14.2469 C   0  0  0  0  0  0  0  0  0  0  0  0
   -5.4920    4.5321   14.5531 C   0  0  0  0  0  0  0  0  0  0  0  0
   -6.0207    3.4887   15.2725 C   0  0  0  0  0  0  0  0  0  0  0  0
   -5.8806    1.1037   16.6751 S   0  0  0  0  0  0  0  0  0  0  0  0
   -7.2982    1.2146   16.5172 O   0  0  0  0  0  0  0  0  0  0  0  0
   -5.3063    1.2919   17.9869 O   0  0  0  0  0  0  0  0  0  0  0  0
   -5.3558   -0.2608   16.0233 N   0  0  0  0  0  0  0  0  0  0  0  0
   -3.6520    5.6880   13.3315 C   0  0  0  0  0  0  0  0  0  0  0  0
   -2.5825    6.6035   13.8411 C   0  0  0  0  0  0  0  0  0  0  0  0
   -2.1735    7.3733   12.6299 N   0  0  0  0  0  0  0  0  0  0  0  0
  1  2  2  0
  2  3  1  0
  3  4  2  0
  4  5  1  0
  1  6  1  0
  5  6  2  0
  1  7  1  0
  7  8  2  0
  7  9  2  0
  7 10  1  0
  4 11  1  0
 11 12  1  0
 12 13  1  0
M  END
$$$$
