3ADS_IMN_B_3_
     RDKit          3D

 25 27  0  0  0  0  0  0  0  0999 V2000
   35.4930   36.5700   39.3020 C   0  0  0  0  0  0  0  0  0  0  0  0
   34.8620   35.2840   39.1930 C   0  0  0  0  0  0  0  0  0  0  0  0
   34.5650   34.7360   37.9250 C   0  0  0  0  0  0  0  0  0  0  0  0
   34.8800   35.4450   36.7590 C   0  0  0  0  0  0  0  0  0  0  0  0
   35.5080   36.7210   36.8480 C   0  0  0  0  0  0  0  0  0  0  0  0
   35.8150   37.2820   38.1080 C   0  0  0  0  0  0  0  0  0  0  0  0
   33.3130   34.2900   35.2090 C   0  0  0  0  0  0  0  0  0  0  0  0
   34.6520   34.7940   40.5460 C   0  0  0  0  0  0  0  0  0  0  0  0
   35.1190   35.7340   41.3940 C   0  0  0  0  0  0  0  0  0  0  0  0
   36.2130   37.9730   41.2260 C   0  0  0  0  0  0  0  0  0  0  0  0
   37.5220   37.9520   42.0030 C   0  0  0  0  0  0  0  0  0  0  0  0
   38.0380   39.1660   42.5570 C   0  0  0  0  0  0  0  0  0  0  0  0
   39.2400   39.1550   43.2890 C   0  0  0  0  0  0  0  0  0  0  0  0
   39.9470   37.9470   43.4820 C   0  0  0  0  0  0  0  0  0  0  0  0
   39.4590   36.7410   42.9400 C   0  0  0  0  0  0  0  0  0  0  0  0
   38.2620   36.7350   42.2070 C   0  0  0  0  0  0  0  0  0  0  0  0
   35.0730   35.6120   42.8990 C   0  0  0  0  0  0  0  0  0  0  0  0
   34.0080   33.4590   40.9010 C   0  0  0  0  0  0  0  0  0  0  0  0
   35.0370   32.3660   41.1940 C   0  0  0  0  0  0  0  0  0  0  0  0
   35.6470   36.8280   40.6750 N   0  0  0  0  0  0  0  0  0  0  0  0
   34.5770   34.9000   35.5430 O   0  0  0  0  0  0  0  0  0  0  0  0
   35.6240   39.0350   41.0860 O   0  0  0  0  0  0  0  0  0  0  0  0
   36.2280   32.5910   41.1420 O   0  0  0  0  0  0  0  0  0  0  0  0
   34.6160   31.1290   41.5190 O   0  0  0  0  0  0  0  0  0  0  0  0
   41.4240   37.9450   44.3930 Cl  0  0  0  0  0  0  0  0  0  0  0  0
  1  2  1  0
  2  3  2  0
  3  4  1  0
  4  5  2  0
  1  6  2  0
  5  6  1  0
  2  8  1  0
  8  9  2  0
 10 11  1  0
 11 12  2  0
 12 13  1  0
 13 14  2  0
 14 15  1  0
 11 16  1  0
 15 16  2  0
  9 17  1  0
  8 18  1  0
 18 19  1  0
  1 20  1  0
  9 20  1  0
 10 20  1  0
  4 21  1  0
  7 21  1  0
 10 22  2  0
 19 23  2  0
 19 24  1  0
 14 25  1  0
M  END
$$$$
