3ADV_SRO_B_4_
     RDKit          3D

 13 14  0  0  0  0  0  0  0  0999 V2000
   40.2798   34.8216   43.2706 O   0  0  0  0  0  0  0  0  0  0  0  0
   39.6327   36.0060   43.1155 C   0  0  0  0  0  0  0  0  0  0  0  0
   40.1611   37.1863   43.7088 C   0  0  0  0  0  0  0  0  0  0  0  0
   39.5014   38.4174   43.5578 C   0  0  0  0  0  0  0  0  0  0  0  0
   38.2971   38.4911   42.8062 C   0  0  0  0  0  0  0  0  0  0  0  0
   37.4395   39.5223   42.4854 N   0  0  0  0  0  0  0  0  0  0  0  0
   36.4014   39.0503   41.7223 C   0  0  0  0  0  0  0  0  0  0  0  0
   36.5332   37.7252   41.5158 C   0  0  0  0  0  0  0  0  0  0  0  0
   37.7628   37.3049   42.2068 C   0  0  0  0  0  0  0  0  0  0  0  0
   38.4407   36.0588   42.3674 C   0  0  0  0  0  0  0  0  0  0  0  0
   35.5923   36.8439   40.7234 C   0  0  0  0  0  0  0  0  0  0  0  0
   34.7006   36.0333   41.6718 C   0  0  0  0  0  0  0  0  0  0  0  0
   35.2100   34.6563   41.7691 N   0  0  0  0  0  0  0  0  0  0  0  0
  1  2  1  0
  2  3  2  0
  3  4  1  0
  4  5  2  0
  5  6  1  0
  6  7  1  0
  7  8  2  0
  5  9  1  0
  8  9  1  0
  2 10  1  0
  9 10  2  0
  8 11  1  0
 11 12  1  0
 12 13  1  0
M  END
$$$$
