4B76_PW1_B_1721_
     RDKit          3D

 29 30  0  0  0  0  0  0  0  0999 V2000
    2.0612   16.3252  -40.6717 C   0  0  0  0  0  0  0  0  0  0  0  0
    2.9842   17.2967  -40.3449 C   0  0  0  0  0  0  0  0  0  0  0  0
    4.2914   16.9460  -40.1523 C   0  0  0  0  0  0  0  0  0  0  0  0
    5.1961   17.9004  -39.8316 F   0  0  0  0  0  0  0  0  0  0  0  0
    4.7204   15.6445  -40.2763 C   0  0  0  0  0  0  0  0  0  0  0  0
    3.7832   14.6750  -40.6058 C   0  0  0  0  0  0  0  0  0  0  0  0
    2.4498   14.9956  -40.8065 C   0  0  0  0  0  0  0  0  0  0  0  0
    1.3986   13.9660  -41.1670 C   0  0  0  0  0  0  0  0  0  0  0  0
    1.6439   13.2788  -42.4533 N   0  0  0  0  0  0  0  0  0  0  0  0
    6.2504   14.0043  -36.6123 C   0  0  0  0  0  0  0  0  0  0  0  0
    5.6933   14.5819  -37.7327 C   0  0  0  0  0  0  0  0  0  0  0  0
    6.4676   14.7714  -38.8673 C   0  0  0  0  0  0  0  0  0  0  0  0
    7.7928   14.3810  -38.8678 C   0  0  0  0  0  0  0  0  0  0  0  0
    6.0562   15.3371  -40.0720 O   0  0  0  0  0  0  0  0  0  0  0  0
    8.3435   13.8042  -37.7427 C   0  0  0  0  0  0  0  0  0  0  0  0
    4.1940   13.3992  -40.7286 F   0  0  0  0  0  0  0  0  0  0  0  0
    7.5708   13.6170  -36.6181 C   0  0  0  0  0  0  0  0  0  0  0  0
    0.5253   14.4006  -41.2173 H   0  0  0  0  0  0  0  0  0  0  0  0
    1.3559   13.2888  -40.4621 H   0  0  0  0  0  0  0  0  0  0  0  0
    1.1568   16.5641  -40.8045 H   0  0  0  0  0  0  0  0  0  0  0  0
    2.7192   18.1930  -40.2540 H   0  0  0  0  0  0  0  0  0  0  0  0
    4.7869   14.8470  -37.7282 H   0  0  0  0  0  0  0  0  0  0  0  0
    5.7250   13.8735  -35.8394 H   0  0  0  0  0  0  0  0  0  0  0  0
    7.9494   13.2211  -35.8478 H   0  0  0  0  0  0  0  0  0  0  0  0
    9.2498   13.5369  -37.7431 H   0  0  0  0  0  0  0  0  0  0  0  0
    8.3219   14.5102  -39.6395 H   0  0  0  0  0  0  0  0  0  0  0  0
    1.0058   12.6353  -42.5962 H   0  0  0  0  0  0  0  0  0  0  0  0
    2.4543   12.8850  -42.4383 H   0  0  0  0  0  0  0  0  0  0  0  0
    1.6144   13.8780  -43.1395 H   0  0  0  0  0  0  0  0  0  0  0  0
  1  2  2  0
  2  3  1  0
  3  4  1  0
  3  5  2  0
  5  6  1  0
  1  7  1  0
  6  7  2  0
  7  8  1  0
  8  9  1  0
 10 11  2  0
 11 12  1  0
 12 13  2  0
  5 14  1  0
 12 14  1  0
 13 15  1  0
  6 16  1  0
 15 17  2  0
 10 17  1  0
  8 18  1  0
  8 19  1  0
  1 20  1  0
  2 21  1  0
 11 22  1  0
 10 23  1  0
 17 24  1  0
 15 25  1  0
 13 26  1  0
  9 27  1  0
  9 28  1  0
  9 29  1  0
M  CHG  1   9   1
M  END
$$$$
