2XUF_TZ4_B_1541_
     RDKit          3D

 50 57  0  0  0  0  0  0  0  0999 V2000
   15.1660  -17.6360  -37.3390 N   0  0  0  0  0  0  0  0  0  0  0  0
   15.0390  -16.4730  -38.0760 C   0  0  0  0  0  0  0  0  0  0  0  0
   15.5140  -16.3770  -39.4280 C   0  0  0  0  0  0  0  0  0  0  0  0
   15.3610  -15.1850  -40.1250 C   0  0  0  0  0  0  0  0  0  0  0  0
   14.7310  -14.0110  -39.5590 C   0  0  0  0  0  0  0  0  0  0  0  0
   14.2740  -14.1150  -38.2010 C   0  0  0  0  0  0  0  0  0  0  0  0
   14.4380  -15.3670  -37.4950 C   0  0  0  0  0  0  0  0  0  0  0  0
   13.8080  -12.9590  -37.4980 C   0  0  0  0  0  0  0  0  0  0  0  0
   13.3760  -13.1920  -36.0620 C   0  0  0  0  0  0  0  0  0  0  0  0
   12.0600  -13.6260  -35.8110 C   0  0  0  0  0  0  0  0  0  0  0  0
   11.6540  -13.8750  -34.4970 C   0  0  0  0  0  0  0  0  0  0  0  0
   12.5640  -13.6950  -33.4380 C   0  0  0  0  0  0  0  0  0  0  0  0
   13.8820  -13.2760  -33.6850 C   0  0  0  0  0  0  0  0  0  0  0  0
   14.2880  -13.0220  -34.9960 C   0  0  0  0  0  0  0  0  0  0  0  0
   14.7020  -12.7130  -40.2100 C   0  0  0  0  0  0  0  0  0  0  0  0
   15.2640  -12.4790  -41.5160 C   0  0  0  0  0  0  0  0  0  0  0  0
   15.3240  -11.2350  -42.1020 C   0  0  0  0  0  0  0  0  0  0  0  0
   14.8130  -10.1200  -41.3920 C   0  0  0  0  0  0  0  0  0  0  0  0
   14.8580   -8.8550  -41.9320 N   0  0  0  0  0  0  0  0  0  0  0  0
   14.2110  -11.5690  -39.4940 C   0  0  0  0  0  0  0  0  0  0  0  0
   14.2700  -10.2980  -40.1250 C   0  0  0  0  0  0  0  0  0  0  0  0
   13.7840  -11.7460  -38.1530 N   0  0  0  0  0  0  0  0  0  0  0  0
   13.3280  -10.5190  -37.4060 C   0  0  0  0  0  0  0  0  0  0  0  0
   12.0130   -9.7920  -37.6970 C   0  0  0  0  0  0  0  0  0  0  0  0
   11.4730   -9.1500  -36.4000 C   0  0  0  0  0  0  0  0  0  0  0  0
   11.8970   -7.6940  -36.1680 C   0  0  0  0  0  0  0  0  0  0  0  0
   10.8340   -6.6300  -35.8140 C   0  0  0  0  0  0  0  0  0  0  0  0
    9.3860   -7.0570  -35.4920 C   0  0  0  0  0  0  0  0  0  0  0  0
    8.5620   -5.8650  -35.0680 C   0  0  0  0  0  0  0  0  0  0  0  0
    8.5480   -4.7660  -35.8220 N   0  0  0  0  0  0  0  0  0  0  0  0
    7.7670   -3.9030  -35.2190 N   0  0  0  0  0  0  0  0  0  0  0  0
    7.2500   -4.4280  -34.1090 N   0  0  0  0  0  0  0  0  0  0  0  0
    7.7440   -5.6930  -33.9490 C   0  0  0  0  0  0  0  0  0  0  0  0
    6.3310   -3.7760  -33.1440 C   0  0  0  0  0  0  0  0  0  0  0  0
    4.8110   -3.9620  -33.3710 C   0  0  0  0  0  0  0  0  0  0  0  0
    4.2370   -3.5260  -34.6790 N   0  0  0  0  0  0  0  0  0  0  0  0
    4.7570   -3.9050  -35.9150 C   0  0  0  0  0  0  0  0  0  0  0  0
    5.0480   -2.8250  -36.8260 C   0  0  0  0  0  0  0  0  0  0  0  0
    4.6150   -1.4490  -36.6430 C   0  0  0  0  0  0  0  0  0  0  0  0
    5.6270   -3.1340  -38.1040 C   0  0  0  0  0  0  0  0  0  0  0  0
    5.7880   -2.1240  -39.1160 C   0  0  0  0  0  0  0  0  0  0  0  0
    5.3870   -0.8300  -38.8920 C   0  0  0  0  0  0  0  0  0  0  0  0
    4.7810   -0.5000  -37.6390 C   0  0  0  0  0  0  0  0  0  0  0  0
    5.9020   -4.3970  -38.4680 N   0  0  0  0  0  0  0  0  0  0  0  0
    5.6510   -5.4290  -37.6190 C   0  0  0  0  0  0  0  0  0  0  0  0
    6.0970   -6.7370  -38.0270 C   0  0  0  0  0  0  0  0  0  0  0  0
    5.0390   -5.2420  -36.3360 C   0  0  0  0  0  0  0  0  0  0  0  0
    4.8320   -6.4350  -35.5330 C   0  0  0  0  0  0  0  0  0  0  0  0
    5.2690   -7.6690  -35.9650 C   0  0  0  0  0  0  0  0  0  0  0  0
    6.1410   -7.7550  -37.1020 C   0  0  0  0  0  0  0  0  0  0  0  0
  1  2  1  0
  2  3  2  0
  3  4  1  0
  4  5  2  0
  5  6  1  0
  2  7  1  0
  6  7  2  0
  6  8  1  0
  8  9  1  0
  9 10  2  0
 10 11  1  0
 11 12  2  0
 12 13  1  0
  9 14  1  0
 13 14  2  0
  5 15  1  0
 15 16  2  0
 16 17  1  0
 17 18  2  0
 18 19  1  0
 15 20  1  0
 18 21  1  0
 20 21  2  0
  8 22  2  0
 20 22  1  0
 22 23  1  0
 23 24  1  0
 24 25  1  0
 25 26  1  0
 26 27  1  0
 27 28  1  0
 28 29  1  0
 29 30  1  0
 30 31  2  0
 31 32  1  0
 29 33  2  0
 32 33  1  0
 32 34  1  0
 34 35  1  0
 35 36  1  0
 36 37  1  0
 37 38  1  0
 38 39  2  0
 38 40  1  0
 40 41  2  0
 41 42  1  0
 39 43  1  0
 42 43  2  0
 40 44  1  0
 44 45  2  0
 45 46  1  0
 37 47  2  0
 45 47  1  0
 47 48  1  0
 48 49  1  0
 46 50  1  0
 49 50  1  0
M  CHG  1  22   1
M  END
$$$$
