2HA0_NWA_B_1609_
     RDKit          3D

 10  9  0  0  0  0  0  0  0  0999 V2000
    5.4928   -2.0264  -37.9414 N   0  0  0  0  0  0  0  0  0  0  0  0
    6.9410   -2.0314  -37.5926 C   0  0  0  0  0  0  0  0  0  0  0  0
    7.6214   -0.6509  -37.5699 C   0  0  0  0  0  0  0  0  0  0  0  0
    9.9356    0.4484  -37.4307 C   0  0  0  0  0  0  0  0  0  0  0  0
    9.8992    0.7254  -38.8269 O   0  0  0  0  0  0  0  0  0  0  0  0
   11.3947    0.2784  -37.0038 C   0  0  0  0  0  0  0  0  0  0  0  0
    4.9245   -3.3309  -37.5532 C   0  0  0  0  0  0  0  0  0  0  0  0
    5.2956   -1.8416  -39.3789 C   0  0  0  0  0  0  0  0  0  0  0  0
    4.7736   -0.9526  -37.2564 C   0  0  0  0  0  0  0  0  0  0  0  0
    9.0762   -0.7907  -37.0920 C   0  0  0  0  0  0  0  0  0  0  0  0
  1  2  1  0
  2  3  1  0
  4  5  1  0
  4  6  1  0
  1  7  1  0
  1  8  1  0
  1  9  1  0
  3 10  1  0
  4 10  1  0
M  CHG  1   1   1
M  END
$$$$
