4EI4_0Q2_A_1201_
     RDKit          3D

 20 23  0  0  0  0  0  0  0  0999 V2000
   11.5671    4.7858   -1.3088 C   0  0  0  0  0  0  0  0  0  0  0  0
   12.7176    3.8285   -1.0637 C   0  0  0  0  0  0  0  0  0  0  0  0
   12.7161    2.5714   -1.4362 N   0  0  0  0  0  0  0  0  0  0  0  0
   13.8714    1.9674   -1.0613 C   0  0  0  0  0  0  0  0  0  0  0  0
   14.3702    0.6577   -1.1873 C   0  0  0  0  0  0  0  0  0  0  0  0
   15.5631    0.3289   -0.7255 N   0  0  0  0  0  0  0  0  0  0  0  0
   16.3382    1.2311   -0.1185 C   0  0  0  0  0  0  0  0  0  0  0  0
   15.9152    2.5689    0.0604 C   0  0  0  0  0  0  0  0  0  0  0  0
   14.6499    2.9573   -0.4097 C   0  0  0  0  0  0  0  0  0  0  0  0
   13.8973    4.1320   -0.4369 N   0  0  0  0  0  0  0  0  0  0  0  0
   14.2597    5.4501    0.1054 C   0  0  0  0  0  0  0  0  0  0  0  0
   15.4573    6.0328   -0.6702 C   0  0  0  0  0  0  0  0  0  0  0  0
   15.7255    7.4752   -0.2142 C   0  0  0  0  0  0  0  0  0  0  0  0
   15.9275    7.5365    1.3141 C   0  0  0  0  0  0  0  0  0  0  0  0
   14.8421    6.8045    2.1500 C   0  0  0  0  0  0  0  0  0  0  0  0
   14.5448    5.3897    1.6259 C   0  0  0  0  0  0  0  0  0  0  0  0
   13.6294    7.5659    2.1744 O   0  0  0  0  0  0  0  0  0  0  0  0
   17.0047    3.2638    0.7594 C   0  0  0  0  0  0  0  0  0  0  0  0
   17.9651    2.3674    0.9540 C   0  0  0  0  0  0  0  0  0  0  0  0
   17.5804    1.1484    0.4370 N   0  0  0  0  0  0  0  0  0  0  0  0
  1  2  1  0
  2  3  2  0
  3  4  1  0
  4  5  2  0
  5  6  1  0
  6  7  2  0
  7  8  1  0
  4  9  1  0
  8  9  2  0
  2 10  1  0
  9 10  1  0
 10 11  1  0
 11 12  1  0
 12 13  1  0
 13 14  1  0
 14 15  1  0
 11 16  1  0
 15 16  1  0
 15 17  1  0
  8 18  1  0
 18 19  1  0
  7 20  1  0
 19 20  2  0
M  END
$$$$
