4E5W_0NT_B_1202_
     RDKit          3D

 30 34  0  0  0  0  0  0  0  0999 V2000
   12.4650    9.8370    0.9480 C   0  0  0  0  0  0  0  0  0  0  0  0
   14.4960   12.0320    3.0890 C   0  0  0  0  0  0  0  0  0  0  0  0
   14.9580    9.3200    1.0890 C   0  0  0  0  0  0  0  0  0  0  0  0
   12.1610   11.1810    0.2690 C   0  0  0  0  0  0  0  0  0  0  0  0
   14.6230   13.5590    3.1540 C   0  0  0  0  0  0  0  0  0  0  0  0
   15.8880   11.4890    3.4480 C   0  0  0  0  0  0  0  0  0  0  0  0
   14.0280   11.5490    1.7550 N   0  0  0  0  0  0  0  0  0  0  0  0
   12.7350   12.1570    1.3060 C   0  0  0  0  0  0  0  0  0  0  0  0
   13.7880   10.0640    1.7240 C   0  0  0  0  0  0  0  0  0  0  0  0
   15.7510    9.9630    0.4010 O   0  0  0  0  0  0  0  0  0  0  0  0
   15.1300    7.9740    1.2500 N   0  0  0  0  0  0  0  0  0  0  0  0
   16.2610    7.2620    0.6010 C   0  0  0  0  0  0  0  0  0  0  0  0
   15.6960    6.1510   -0.3060 C   0  0  0  0  0  0  0  0  0  0  0  0
   14.8150    5.2190    0.5370 C   0  0  0  0  0  0  0  0  0  0  0  0
   13.6650    5.9600    1.2590 C   0  0  0  0  0  0  0  0  0  0  0  0
   14.2340    7.1360    2.0750 C   0  0  0  0  0  0  0  0  0  0  0  0
   14.2970    4.0660   -0.2070 N   0  0  0  0  0  0  0  0  0  0  0  0
   13.0500    3.9610   -0.7680 C   0  0  0  0  0  0  0  0  0  0  0  0
   12.8830    2.7660   -1.2490 N   0  0  0  0  0  0  0  0  0  0  0  0
   13.9850    2.0140   -0.9950 C   0  0  0  0  0  0  0  0  0  0  0  0
   14.9100    2.8430   -0.3160 C   0  0  0  0  0  0  0  0  0  0  0  0
   16.1410    2.2940    0.0880 C   0  0  0  0  0  0  0  0  0  0  0  0
   17.3250    2.7970    0.7880 C   0  0  0  0  0  0  0  0  0  0  0  0
   18.1850    1.7670    0.8860 C   0  0  0  0  0  0  0  0  0  0  0  0
   17.6290    0.6480    0.3160 N   0  0  0  0  0  0  0  0  0  0  0  0
   16.3850    0.9300   -0.1830 C   0  0  0  0  0  0  0  0  0  0  0  0
   15.4670    0.1830   -0.8150 N   0  0  0  0  0  0  0  0  0  0  0  0
   14.3260    0.6840   -1.2590 C   0  0  0  0  0  0  0  0  0  0  0  0
   13.6110    9.7030    2.7300 H   0  0  0  0  0  0  0  0  0  0  0  0
   18.0620   -0.2180    0.2580 H   0  0  0  0  0  0  0  0  0  0  0  0
  1  4  1  0
  2  5  1  0
  2  6  1  0
  2  7  1  0
  4  8  1  0
  7  8  1  0
  1  9  1  0
  3  9  1  0
  7  9  1  0
  3 10  2  0
  3 11  1  0
 11 12  1  0
 12 13  1  0
 13 14  1  0
 14 15  1  0
 11 16  1  0
 15 16  1  0
 14 17  1  0
 17 18  1  0
 18 19  2  0
 19 20  1  0
 20 21  2  0
 17 21  1  0
 21 22  1  0
 22 23  1  0
 23 24  2  0
 24 25  1  0
 22 26  2  0
 25 26  1  0
 26 27  1  0
 20 28  1  0
 27 28  2  0
  9 29  1  0
 25 30  1  0
M  END
$$$$
