2CBV_CGB_B_1445_
     RDKit          3D

 12 13  0  0  0  0  0  0  0  0999 V2000
   19.4254   21.7265  131.5777 O   0  0  0  0  0  0  0  0  0  0  0  0
   19.9850   22.8082  132.3295 C   0  0  0  0  0  0  0  0  0  0  0  0
   21.1962   22.4072  133.0302 N   0  0  0  0  0  0  0  0  0  0  0  0
   19.1147   23.2790  133.4898 C   0  0  0  0  0  0  0  0  0  0  0  0
   20.1174   23.7216  134.5775 C   0  0  0  0  0  0  0  0  0  0  0  0
   21.5237   23.4387  133.9855 C   0  0  0  0  0  0  0  0  0  0  0  0
   20.3328   23.9793  131.3992 C   0  0  0  0  0  0  0  0  0  0  0  0
   19.1825   24.3957  130.6193 O   0  0  0  0  0  0  0  0  0  0  0  0
   20.9971   25.1329  132.1660 C   0  0  0  0  0  0  0  0  0  0  0  0
   21.5328   26.1046  131.2481 O   0  0  0  0  0  0  0  0  0  0  0  0
   22.0606   24.6098  133.1445 C   0  0  0  0  0  0  0  0  0  0  0  0
   22.4889   25.6607  134.0103 O   0  0  0  0  0  0  0  0  0  0  0  0
  1  2  1  0
  2  3  1  0
  2  4  1  0
  4  5  1  0
  3  6  1  0
  5  6  1  0
  2  7  1  0
  7  8  1  0
  7  9  1  0
  9 10  1  0
  6 11  1  0
  9 11  1  0
 11 12  1  0
M  END
$$$$
