2WC3_AM3_D_1446_
     RDKit          3D

 22 23  0  0  0  0  0  0  0  0999 V2000
   20.6840   25.7900  132.7740 O   0  0  0  0  0  0  0  0  0  0  0  0
   21.3040   24.9660  131.7730 C   0  0  0  0  0  0  0  0  0  0  0  0
   22.5010   24.3040  132.4490 C   0  0  0  0  0  0  0  0  0  0  0  0
   23.4050   25.3450  133.1200 C   0  0  0  0  0  0  0  0  0  0  0  0
   23.8150   24.6350  134.2940 O   0  0  0  0  0  0  0  0  0  0  0  0
   20.3640   23.8940  131.2200 C   0  0  0  0  0  0  0  0  0  0  0  0
   19.1670   24.4540  130.6390 O   0  0  0  0  0  0  0  0  0  0  0  0
   19.8560   22.9860  132.3250 C   0  0  0  0  0  0  0  0  0  0  0  0
   19.4620   21.7210  131.7540 O   0  0  0  0  0  0  0  0  0  0  0  0
   20.8230   22.6600  133.4470 C   0  0  0  0  0  0  0  0  0  0  0  0
   20.1060   22.6110  134.6910 O   0  0  0  0  0  0  0  0  0  0  0  0
   22.0050   23.5050  133.5700 N   0  0  0  0  0  0  0  0  0  0  0  0
   22.9080   23.6800  134.6210 C   0  0  0  0  0  0  0  0  0  0  0  0
   22.8390   23.1680  135.8690 N   0  0  0  0  0  0  0  0  0  0  0  0
   23.8710   23.2380  136.9150 C   0  0  0  0  0  0  0  0  0  0  0  0
   23.2920   23.8100  138.1990 C   0  0  0  0  0  0  0  0  0  0  0  0
   24.3220   23.7760  139.3340 C   0  0  0  0  0  0  0  0  0  0  0  0
   23.6480   24.3420  140.5770 C   0  0  0  0  0  0  0  0  0  0  0  0
   24.4940   24.2800  141.8480 C   0  0  0  0  0  0  0  0  0  0  0  0
   23.5810   24.4120  143.0760 C   0  0  0  0  0  0  0  0  0  0  0  0
   23.7290   25.7480  143.7800 C   0  0  0  0  0  0  0  0  0  0  0  0
   24.3470   25.5410  145.1490 C   0  0  0  0  0  0  0  0  0  0  0  0
  1  2  1  0
  2  3  1  0
  3  4  1  0
  4  5  1  0
  2  6  1  0
  6  7  1  0
  6  8  1  0
  8  9  1  0
  8 10  1  0
 10 11  1  0
  3 12  1  0
 10 12  1  0
  5 13  1  0
 12 13  1  0
 13 14  2  3
 14 15  1  0
 15 16  1  0
 16 17  1  0
 17 18  1  0
 18 19  1  0
 19 20  1  0
 20 21  1  0
 21 22  1  0
M  END
$$$$
