3N7A_FA1_W_147_
     RDKit          3D

 12 12  0  0  0  0  0  0  0  0999 V2000
   -6.2174   70.9293   64.9873 C   0  0  0  0  0  0  0  0  0  0  0  0
   -5.9442   70.8792   66.4499 C   0  0  0  0  0  0  0  0  0  0  0  0
   -4.5174   71.1270   66.7968 O   0  0  0  0  0  0  0  0  0  0  0  0
   -6.9484   71.8300   67.1636 C   0  0  0  0  0  0  0  0  0  0  0  0
   -6.7516   71.5609   68.5751 O   0  0  0  0  0  0  0  0  0  0  0  0
   -8.3921   71.4890   66.7511 C   0  0  0  0  0  0  0  0  0  0  0  0
   -8.6861   70.8222   65.5207 C   0  0  0  0  0  0  0  0  0  0  0  0
   -7.9152   70.3417   63.1915 C   0  0  0  0  0  0  0  0  0  0  0  0
   -9.2284   70.0409   62.7820 O   0  0  0  0  0  0  0  0  0  0  0  0
   -7.5870   68.8742   64.9389 O   0  0  0  0  0  0  0  0  0  0  0  0
   -7.3006   71.3932   62.4136 O   0  0  0  0  0  0  0  0  0  0  0  0
   -7.6531   70.3139   64.6738 C   0  0  0  0  0  0  0  0  0  0  0  0
  1  2  1  0
  2  3  1  0
  2  4  1  0
  4  5  1  0
  4  6  1  0
  6  7  2  0
  8  9  1  0
  8 11  2  0
  1 12  1  0
  7 12  1  0
  8 12  1  0
 10 12  1  0
M  END
$$$$
