3F1A_HS7_A_0_
     RDKit          3D

 15 15  0  0  0  0  0  0  0  0999 V2000
   -3.2825   -2.7207   -3.9475 O   0  0  0  0  0  0  0  0  0  0  0  0
   -2.1314   -2.8243   -4.3588 C   0  0  0  0  0  0  0  0  0  0  0  0
   -1.6975   -2.1439   -5.4113 N   0  0  0  0  0  0  0  0  0  0  0  0
   -2.5970   -1.3061   -6.0591 O   0  0  0  0  0  0  0  0  0  0  0  0
   -1.1275   -3.7256   -3.6832 C   0  0  0  0  0  0  0  0  0  0  0  0
   -1.6094   -5.0909   -3.6672 N   0  0  0  0  0  0  0  0  0  0  0  0
   -1.4330   -6.0505   -4.9381 S   0  0  0  0  0  0  0  0  0  0  0  0
   -0.2399   -5.6780   -5.6546 O   0  0  0  0  0  0  0  0  0  0  0  0
   -1.3783   -7.4008   -4.4537 O   0  0  0  0  0  0  0  0  0  0  0  0
   -2.6912   -5.9026   -5.9275 C   0  0  0  0  0  0  0  0  0  0  0  0
   -2.5498   -5.3098   -7.1881 C   0  0  0  0  0  0  0  0  0  0  0  0
   -3.9483   -6.3796   -5.5465 C   0  0  0  0  0  0  0  0  0  0  0  0
   -5.0469   -6.2685   -6.4042 C   0  0  0  0  0  0  0  0  0  0  0  0
   -4.8884   -5.6826   -7.6599 C   0  0  0  0  0  0  0  0  0  0  0  0
   -3.6394   -5.2018   -8.0508 C   0  0  0  0  0  0  0  0  0  0  0  0
  1  2  2  0
  2  3  1  0
  3  4  2  0
  2  5  1  0
  5  6  1  0
  6  7  1  0
  7  8  2  0
  7  9  2  0
  7 10  1  0
 10 11  2  0
 10 12  1  0
 12 13  2  0
 13 14  1  0
 11 15  1  0
 14 15  2  0
M  END
$$$$
