3U4O_08E_B_579_
     RDKit          3D

 28 31  0  0  0  0  0  0  0  0999 V2000
   23.7520   -1.3067    5.0915 C   0  0  0  0  0  0  0  0  0  0  0  0
   24.2395   -2.6128    5.0787 C   0  0  0  0  0  0  0  0  0  0  0  0
   20.8319    2.8835    5.0331 C   0  0  0  0  0  0  0  0  0  0  0  0
   24.7400   -2.4598    2.6965 C   0  0  0  0  0  0  0  0  0  0  0  0
   20.5350    0.9420    3.6055 C   0  0  0  0  0  0  0  0  0  0  0  0
   19.4790    3.1229    4.8840 C   0  0  0  0  0  0  0  0  0  0  0  0
   24.2643   -1.1346    2.6874 C   0  0  0  0  0  0  0  0  0  0  0  0
   24.1424   -0.1271    1.6963 C   0  0  0  0  0  0  0  0  0  0  0  0
   21.3757    1.7690    4.3856 C   0  0  0  0  0  0  0  0  0  0  0  0
   23.7910   -0.5982    3.8765 C   0  0  0  0  0  0  0  0  0  0  0  0
   24.7258   -3.1714    3.8953 C   0  0  0  0  0  0  0  0  0  0  0  0
   23.6081    1.0136    2.2758 C   0  0  0  0  0  0  0  0  0  0  0  0
   19.1751    1.2622    3.5139 C   0  0  0  0  0  0  0  0  0  0  0  0
   24.6519   -1.4700   -1.7852 C   0  0  0  0  0  0  0  0  0  0  0  0
   24.2055   -1.3486   -0.4263 C   0  0  0  0  0  0  0  0  0  0  0  0
   25.4309   -0.5175   -2.3200 C   0  0  0  0  0  0  0  0  0  0  0  0
   24.5486   -0.2874    0.3426 C   0  0  0  0  0  0  0  0  0  0  0  0
   25.4236    0.7669   -0.2617 C   0  0  0  0  0  0  0  0  0  0  0  0
   23.2837    2.3391    1.7622 C   0  0  0  0  0  0  0  0  0  0  0  0
   22.8495    1.5555    4.6027 C   0  0  0  0  0  0  0  0  0  0  0  0
   18.6460    2.3416    4.1491 N   0  0  0  0  0  0  0  0  0  0  0  0
   23.4115    0.6786    3.5971 N   0  0  0  0  0  0  0  0  0  0  0  0
   25.8079    0.5676   -1.5763 N   0  0  0  0  0  0  0  0  0  0  0  0
   18.3138    0.4583    2.7601 N   0  0  0  0  0  0  0  0  0  0  0  0
   25.7800    1.7536    0.3797 O   0  0  0  0  0  0  0  0  0  0  0  0
   22.7835    2.3083    0.5037 O   0  0  0  0  0  0  0  0  0  0  0  0
   23.4350    3.3894    2.3578 O   0  0  0  0  0  0  0  0  0  0  0  0
   25.3356   -4.7783    3.8959 Cl  0  0  0  0  0  0  0  0  0  0  0  0
  1  2  2  0
  3  6  2  0
  4  7  1  0
  7  8  1  0
  3  9  1  0
  5  9  2  0
  1 10  1  0
  7 10  2  0
  2 11  1  0
  4 11  2  0
  8 12  2  0
  5 13  1  0
 14 15  1  0
 14 16  2  0
  8 17  1  0
 15 17  2  0
 17 18  1  0
 12 19  1  0
  9 20  1  0
  6 21  1  0
 13 21  2  0
 20 22  1  0
 12 22  1  0
 10 22  1  0
 18 23  1  0
 16 23  1  0
 13 24  1  0
 18 25  2  0
 19 26  2  0
 19 27  1  0
 11 28  1  0
M  END
$$$$
