3U4R_08F_B_579_
     RDKit          3D

 42 46  0  0  0  0  0  0  0  0999 V2000
   17.9680    8.1780    4.2820 S   0  0  0  0  0  0  0  0  0  0  0  0
   18.3830    8.8340    3.0660 O   0  0  0  0  0  0  0  0  0  0  0  0
   18.7660    8.3980    5.4640 O   0  0  0  0  0  0  0  0  0  0  0  0
   22.3750    4.9640    1.8790 S   0  0  0  0  0  0  0  0  0  0  0  0
   22.6000    5.1650    0.4570 O   0  0  0  0  0  0  0  0  0  0  0  0
   22.7590    5.9020    2.8980 O   0  0  0  0  0  0  0  0  0  0  0  0
   24.3290   -0.2540    0.3160 C   0  0  0  0  0  0  0  0  0  0  0  0
   24.5780   -2.3090    2.7360 C   0  0  0  0  0  0  0  0  0  0  0  0
   24.5800   -3.0310    3.9360 C   0  0  0  0  0  0  0  0  0  0  0  0
   24.0220   -1.0090    2.7130 C   0  0  0  0  0  0  0  0  0  0  0  0
   23.4800   -0.4600    3.9030 C   0  0  0  0  0  0  0  0  0  0  0  0
   22.9950    0.7940    3.5890 N   0  0  0  0  0  0  0  0  0  0  0  0
   23.2050    1.0590    2.2290 C   0  0  0  0  0  0  0  0  0  0  0  0
   23.8660   -0.0610    1.6820 C   0  0  0  0  0  0  0  0  0  0  0  0
   24.0540   -2.4720    5.1240 C   0  0  0  0  0  0  0  0  0  0  0  0
   23.4980   -1.1760    5.1280 C   0  0  0  0  0  0  0  0  0  0  0  0
   22.7590    2.2710    1.5600 C   0  0  0  0  0  0  0  0  0  0  0  0
   22.3410    1.7200    4.5410 C   0  0  0  0  0  0  0  0  0  0  0  0
   22.3010    2.2930    0.4180 O   0  0  0  0  0  0  0  0  0  0  0  0
   25.2280    0.8220   -0.2950 C   0  0  0  0  0  0  0  0  0  0  0  0
   25.6820    0.6040   -1.6120 N   0  0  0  0  0  0  0  0  0  0  0  0
   25.3660   -0.5130   -2.3450 C   0  0  0  0  0  0  0  0  0  0  0  0
   24.5770   -1.4700   -1.8270 C   0  0  0  0  0  0  0  0  0  0  0  0
   24.0530   -1.3340   -0.4630 C   0  0  0  0  0  0  0  0  0  0  0  0
   25.5280    1.8220    0.3520 O   0  0  0  0  0  0  0  0  0  0  0  0
   22.8880    3.4280    2.3540 N   0  0  0  0  0  0  0  0  0  0  0  0
   20.6130    4.9090    2.0280 C   0  0  0  0  0  0  0  0  0  0  0  0
   20.8490    1.8240    4.4040 C   0  0  0  0  0  0  0  0  0  0  0  0
   20.1240    2.7250    5.1980 C   0  0  0  0  0  0  0  0  0  0  0  0
   18.7480    2.7890    5.0220 C   0  0  0  0  0  0  0  0  0  0  0  0
   18.0510    2.0130    4.1390 N   0  0  0  0  0  0  0  0  0  0  0  0
   18.7500    1.1230    3.3730 C   0  0  0  0  0  0  0  0  0  0  0  0
   20.1470    1.0130    3.4810 C   0  0  0  0  0  0  0  0  0  0  0  0
   18.0550    0.3230    2.4730 N   0  0  0  0  0  0  0  0  0  0  0  0
   25.2500   -4.6260    3.9320 Cl  0  0  0  0  0  0  0  0  0  0  0  0
   19.8760    4.0840    1.1700 C   0  0  0  0  0  0  0  0  0  0  0  0
   18.4860    4.0530    1.2890 C   0  0  0  0  0  0  0  0  0  0  0  0
   17.8560    4.8420    2.2600 C   0  0  0  0  0  0  0  0  0  0  0  0
   18.6020    5.6770    3.1310 C   0  0  0  0  0  0  0  0  0  0  0  0
   19.9880    5.7130    3.0180 C   0  0  0  0  0  0  0  0  0  0  0  0
   17.8580    6.4510    4.0960 N   0  0  0  0  0  0  0  0  0  0  0  0
   16.3400    8.6960    4.7650 C   0  0  0  0  0  0  0  0  0  0  0  0
  1  2  2  0
  1  3  2  0
  4  5  2  0
  4  6  2  0
  8  9  2  0
  8 10  1  0
 10 11  2  0
 11 12  1  0
 12 13  1  0
 13 14  2  0
  7 14  1  0
 10 14  1  0
  9 15  1  0
 11 16  1  0
 15 16  2  0
 13 17  1  0
 12 18  1  0
 17 19  2  0
  7 20  1  0
 20 21  1  0
 21 22  1  0
 22 23  2  0
  7 24  2  0
 23 24  1  0
 20 25  2  0
  4 26  1  0
 17 26  1  0
  4 27  1  0
 18 28  1  0
 28 29  2  0
 29 30  1  0
 30 31  2  0
 31 32  1  0
 28 33  1  0
 32 33  2  0
 32 34  1  0
  9 35  1  0
 27 36  2  0
 36 37  1  0
 37 38  2  0
 38 39  1  0
 39 40  2  0
 27 40  1  0
  1 41  1  0
 39 41  1  0
  1 42  1  0
M  END
$$$$
