3I7G_732_A_999_
     RDKit          3D

 26 28  0  0  0  0  0  0  0  0999 V2000
   -8.6545   26.0967   51.4169 C   0  0  0  0  0  0  0  0  0  0  0  0
   -7.5646   26.7932   51.9153 C   0  0  0  0  0  0  0  0  0  0  0  0
   -6.9206   27.7261   51.1138 C   0  0  0  0  0  0  0  0  0  0  0  0
   -7.3744   27.9655   49.8270 C   0  0  0  0  0  0  0  0  0  0  0  0
   -8.4623   27.2659   49.3446 C   0  0  0  0  0  0  0  0  0  0  0  0
   -9.1053   26.3371   50.1391 C   0  0  0  0  0  0  0  0  0  0  0  0
   -7.0857   26.5533   53.2821 C   0  0  0  0  0  0  0  0  0  0  0  0
   -9.0485   27.5524   47.7432 Cl  0  0  0  0  0  0  0  0  0  0  0  0
   -6.8933   25.3679   53.9506 C   0  0  0  0  0  0  0  0  0  0  0  0
   -6.3257   25.6896   55.1996 C   0  0  0  0  0  0  0  0  0  0  0  0
   -6.4095   27.0621   55.3050 C   0  0  0  0  0  0  0  0  0  0  0  0
   -6.8078   27.5458   54.1206 O   0  0  0  0  0  0  0  0  0  0  0  0
   -6.2083   27.9721   56.4242 C   0  0  0  0  0  0  0  0  0  0  0  0
   -5.8019   27.6488   57.5436 O   0  0  0  0  0  0  0  0  0  0  0  0
   -6.5451   29.2259   56.0493 N   0  0  0  0  0  0  0  0  0  0  0  0
   -6.5550   30.4452   56.8386 C   0  0  0  0  0  0  0  0  0  0  0  0
   -5.2864   31.2502   56.5343 C   0  0  0  0  0  0  0  0  0  0  0  0
   -7.8328   31.1287   56.3919 C   0  0  0  0  0  0  0  0  0  0  0  0
   -8.0454   31.4062   55.2089 O   0  0  0  0  0  0  0  0  0  0  0  0
   -8.7759   31.3865   57.3210 N   0  0  0  0  0  0  0  0  0  0  0  0
  -10.0366   32.0278   56.9180 C   0  0  0  0  0  0  0  0  0  0  0  0
   -5.6004   32.7453   56.4319 C   0  0  0  0  0  0  0  0  0  0  0  0
   -4.3058   33.5101   56.1503 C   0  0  0  0  0  0  0  0  0  0  0  0
   -3.3391   33.2957   57.3164 C   0  0  0  0  0  0  0  0  0  0  0  0
   -2.9990   31.8063   57.4569 C   0  0  0  0  0  0  0  0  0  0  0  0
   -4.2808   30.9949   57.6702 C   0  0  0  0  0  0  0  0  0  0  0  0
  1  2  2  0
  2  3  1  0
  3  4  2  0
  4  5  1  0
  5  6  2  0
  1  6  1  0
  2  7  1  0
  5  8  1  0
  7  9  2  0
  9 10  1  0
 10 11  2  0
  7 12  1  0
 11 12  1  0
 11 13  1  0
 13 14  2  0
 13 15  1  0
 15 16  1  0
 16 17  1  0
 16 18  1  0
 18 19  2  0
 18 20  1  0
 20 21  1  0
 17 22  1  0
 22 23  1  0
 23 24  1  0
 24 25  1  0
 17 26  1  0
 25 26  1  0
M  END
$$$$
