4AJK_88S_C_1333_
     RDKit          3D

 19 20  0  0  0  0  0  0  0  0999 V2000
   38.6877    6.9538   49.5049 C   0  0  0  0  0  0  0  0  0  0  0  0
   37.3782    6.7418   49.9319 C   0  0  0  0  0  0  0  0  0  0  0  0
   37.7678    8.0974   51.8990 C   0  0  0  0  0  0  0  0  0  0  0  0
   39.5636    7.7119   50.2875 C   0  0  0  0  0  0  0  0  0  0  0  0
   36.9108    7.3182   51.1154 C   0  0  0  0  0  0  0  0  0  0  0  0
   39.0850    8.2623   51.4849 C   0  0  0  0  0  0  0  0  0  0  0  0
   41.4373    8.7049   50.9764 C   0  0  0  0  0  0  0  0  0  0  0  0
   34.7196    8.0996   51.9622 C   0  0  0  0  0  0  0  0  0  0  0  0
   31.2928   10.3811   52.0872 C   0  0  0  0  0  0  0  0  0  0  0  0
   42.8551    9.1550   50.9694 C   0  0  0  0  0  0  0  0  0  0  0  0
   33.2667    7.6727   51.9981 C   0  0  0  0  0  0  0  0  0  0  0  0
   32.4458    8.4128   53.0353 C   0  0  0  0  0  0  0  0  0  0  0  0
   40.9070    7.9802   50.0138 N   0  0  0  0  0  0  0  0  0  0  0  0
   31.3488   11.7014   51.8734 N   0  0  0  0  0  0  0  0  0  0  0  0
   35.5598    7.1516   51.4975 N   0  0  0  0  0  0  0  0  0  0  0  0
   32.3337    9.8415   52.7343 N   0  0  0  0  0  0  0  0  0  0  0  0
   35.0929    9.2292   52.3215 O   0  0  0  0  0  0  0  0  0  0  0  0
   30.3273    9.6924   51.7147 O   0  0  0  0  0  0  0  0  0  0  0  0
   40.3505    9.1319   52.2808 S   0  0  0  0  0  0  0  0  0  0  0  0
  1  2  2  0
  1  4  1  0
  2  5  1  0
  3  5  2  0
  3  6  1  0
  4  6  2  0
  7 10  1  0
  8 11  1  0
 11 12  1  0
  4 13  1  0
  7 13  2  0
  9 14  1  0
  5 15  1  0
  8 15  1  0
  9 16  1  0
 12 16  1  0
  8 17  2  0
  9 18  2  0
  6 19  1  0
  7 19  1  0
M  END
$$$$
