4AL4_W7E_C_1332_BAB
     RDKit          3D

 36 38  0  0  0  0  0  0  0  0999 V2000
   27.3500   14.3230   50.0400 C   0  0  0  0  0  0  0  0  0  0  0  0
   28.0530   14.8080   47.8030 C   0  0  0  0  0  0  0  0  0  0  0  0
   26.1110   14.8690   49.7600 C   0  0  0  0  0  0  0  0  0  0  0  0
   26.8260   15.3920   47.5520 C   0  0  0  0  0  0  0  0  0  0  0  0
   38.6780    6.9820   49.4970 C   0  0  0  0  0  0  0  0  0  0  0  0
   37.3550    6.8040   49.8640 C   0  0  0  0  0  0  0  0  0  0  0  0
   37.6970    8.1250   51.8490 C   0  0  0  0  0  0  0  0  0  0  0  0
   25.8350   15.4160   48.5180 C   0  0  0  0  0  0  0  0  0  0  0  0
   39.5330    7.7330   50.3040 C   0  0  0  0  0  0  0  0  0  0  0  0
   28.3160   14.2820   49.0530 C   0  0  0  0  0  0  0  0  0  0  0  0
   36.8570    7.3810   51.0260 C   0  0  0  0  0  0  0  0  0  0  0  0
   39.0300    8.2810   51.4860 C   0  0  0  0  0  0  0  0  0  0  0  0
   41.3960    8.6970   51.0520 C   0  0  0  0  0  0  0  0  0  0  0  0
   34.6570    8.1350   51.8840 C   0  0  0  0  0  0  0  0  0  0  0  0
   25.0220   18.0060   49.7610 C   0  0  0  0  0  0  0  0  0  0  0  0
   22.6770   17.6240   49.0010 C   0  0  0  0  0  0  0  0  0  0  0  0
   31.4100   10.4590   51.8820 C   0  0  0  0  0  0  0  0  0  0  0  0
   42.8290    9.1110   51.0750 C   0  0  0  0  0  0  0  0  0  0  0  0
   29.7300   12.9570   50.4960 C   0  0  0  0  0  0  0  0  0  0  0  0
   24.5010   16.0550   48.2270 C   0  0  0  0  0  0  0  0  0  0  0  0
   33.2100    7.7120   51.9310 C   0  0  0  0  0  0  0  0  0  0  0  0
   31.1460   12.4690   50.5010 C   0  0  0  0  0  0  0  0  0  0  0  0
   32.4220    8.4930   52.9560 C   0  0  0  0  0  0  0  0  0  0  0  0
   23.9920   16.9650   49.3640 C   0  0  0  0  0  0  0  0  0  0  0  0
   40.8880    7.9800   50.0790 N   0  0  0  0  0  0  0  0  0  0  0  0
   35.4960    7.2080   51.3760 N   0  0  0  0  0  0  0  0  0  0  0  0
   31.4700   11.7930   51.7490 N   0  0  0  0  0  0  0  0  0  0  0  0
   32.3820    9.9150   52.6350 N   0  0  0  0  0  0  0  0  0  0  0  0
   35.0190    9.2450   52.2670 O   0  0  0  0  0  0  0  0  0  0  0  0
   25.3410   18.1580   50.9270 O   0  0  0  0  0  0  0  0  0  0  0  0
   22.6040   18.7240   48.4830 O   0  0  0  0  0  0  0  0  0  0  0  0
   30.5210    9.7900   51.3580 O   0  0  0  0  0  0  0  0  0  0  0  0
   25.5290   18.6950   48.7850 O   0  0  0  0  0  0  0  0  0  0  0  0
   21.6460   16.9090   49.3310 O   0  0  0  0  0  0  0  0  0  0  0  0
   29.5410   13.7120   49.2940 O   0  0  0  0  0  0  0  0  0  0  0  0
   40.2820    9.1810   52.2890 S   0  0  0  0  0  0  0  0  0  0  0  0
  1  3  2  0
  2  4  1  0
  5  6  2  0
  4  8  2  0
  3  8  1  0
  5  9  1  0
  2 10  2  0
  1 10  1  0
  6 11  1  0
  7 11  2  0
  7 12  1  0
  9 12  2  0
 13 18  1  0
  8 20  1  0
 14 21  1  0
 19 22  1  0
 21 23  1  0
 15 24  1  0
 16 24  1  0
 20 24  1  0
  9 25  1  0
 13 25  2  0
 11 26  1  0
 14 26  1  0
 17 27  1  0
 22 27  1  0
 17 28  1  0
 23 28  1  0
 14 29  2  0
 15 30  2  0
 16 31  2  0
 17 32  2  0
 15 33  1  0
 16 34  1  0
 10 35  1  0
 19 35  1  0
 12 36  1  0
 13 36  1  0
M  END
$$$$
