3H0Z_45B_A_1_
     RDKit          3D

 43 47  0  0  0  0  0  0  0  0999 V2000
   31.8790   23.4760   57.8890 Cl  0  0  0  0  0  0  0  0  0  0  0  0
   31.1680   23.8490   56.2940 C   0  0  0  0  0  0  0  0  0  0  0  0
   30.6250   22.8310   55.5200 C   0  0  0  0  0  0  0  0  0  0  0  0
   30.0680   23.1320   54.2880 C   0  0  0  0  0  0  0  0  0  0  0  0
   30.0650   24.4490   53.8390 C   0  0  0  0  0  0  0  0  0  0  0  0
   30.6150   25.4630   54.6210 C   0  0  0  0  0  0  0  0  0  0  0  0
   31.1730   25.1570   55.8550 C   0  0  0  0  0  0  0  0  0  0  0  0
   31.7280   26.1660   56.6570 N   0  0  0  0  0  0  0  0  0  0  0  0
   33.0380   26.4390   56.6790 C   0  0  0  0  0  0  0  0  0  0  0  0
   33.8790   25.7190   56.1590 O   0  0  0  0  0  0  0  0  0  0  0  0
   33.4840   27.6910   57.3840 C   0  0  0  0  0  0  0  0  0  0  0  0
   34.8320   27.9770   57.5340 C   0  0  0  0  0  0  0  0  0  0  0  0
   35.2340   29.1400   58.1810 C   0  0  0  0  0  0  0  0  0  0  0  0
   32.5460   28.5840   57.8990 C   0  0  0  0  0  0  0  0  0  0  0  0
   32.9480   29.7480   58.5450 C   0  0  0  0  0  0  0  0  0  0  0  0
   34.2960   30.0340   58.6880 C   0  0  0  0  0  0  0  0  0  0  0  0
   34.6800   31.2110   59.3560 N   0  0  0  0  0  0  0  0  0  0  0  0
   35.6160   31.2290   60.3190 C   0  0  0  0  0  0  0  0  0  0  0  0
   36.1680   30.1200   60.8180 N   0  0  0  0  0  0  0  0  0  0  0  0
   36.0240   32.4300   60.7290 C   0  0  0  0  0  0  0  0  0  0  0  0
   35.5100   33.5190   60.1980 F   0  0  0  0  0  0  0  0  0  0  0  0
   36.9530   32.5660   61.6830 C   0  0  0  0  0  0  0  0  0  0  0  0
   37.5460   31.5100   62.2320 N   0  0  0  0  0  0  0  0  0  0  0  0
   37.0310   30.1900   61.9770 C   0  0  0  0  0  0  0  0  0  0  0  0
   37.8190   29.0820   62.5120 N   0  0  0  0  0  0  0  0  0  0  0  0
   37.9220   27.7980   62.0520 C   0  0  0  0  0  0  0  0  0  0  0  0
   38.9320   27.0180   62.6110 C   0  0  0  0  0  0  0  0  0  0  0  0
   39.1340   25.6950   62.2170 C   0  0  0  0  0  0  0  0  0  0  0  0
   38.3260   25.1110   61.2500 C   0  0  0  0  0  0  0  0  0  0  0  0
   37.3110   25.8750   60.6880 C   0  0  0  0  0  0  0  0  0  0  0  0
   37.1100   27.1970   61.0840 C   0  0  0  0  0  0  0  0  0  0  0  0
   38.5450   23.6640   60.8390 C   0  0  0  0  0  0  0  0  0  0  0  0
   37.8160   22.7370   61.8220 C   0  0  0  0  0  0  0  0  0  0  0  0
   36.6190   22.9470   62.0120 O   0  0  0  0  0  0  0  0  0  0  0  0
   38.4460   21.7190   62.4640 N   0  0  0  0  0  0  0  0  0  0  0  0
   37.7380   20.8560   63.4010 C   0  0  0  0  0  0  0  0  0  0  0  0
   38.3590   21.1740   64.7580 C   0  0  0  0  0  0  0  0  0  0  0  0
   39.7320   20.6860   64.6760 N   0  0  0  0  0  0  0  0  0  0  0  0
   40.5250   21.4480   63.7110 C   0  0  0  0  0  0  0  0  0  0  0  0
   39.8550   21.3170   62.3430 C   0  0  0  0  0  0  0  0  0  0  0  0
   40.2230   19.6590   65.4030 C   0  0  0  0  0  0  0  0  0  0  0  0
   41.3800   19.2720   65.3070 O   0  0  0  0  0  0  0  0  0  0  0  0
   39.2960   18.9700   66.3660 C   0  0  0  0  0  0  0  0  0  0  0  0
  1  2  1  0
  2  3  2  0
  3  4  1  0
  4  5  2  0
  5  6  1  0
  2  7  1  0
  6  7  2  0
  7  8  1  0
  8  9  1  0
  9 10  2  0
  9 11  1  0
 11 12  2  0
 12 13  1  0
 11 14  1  0
 14 15  2  0
 13 16  2  0
 15 16  1  0
 16 17  1  0
 17 18  1  0
 18 19  2  0
 18 20  1  0
 20 21  1  0
 20 22  2  0
 22 23  1  0
 19 24  1  0
 23 24  2  0
 24 25  1  0
 25 26  1  0
 26 27  2  0
 27 28  1  0
 28 29  2  0
 29 30  1  0
 26 31  1  0
 30 31  2  0
 29 32  1  0
 32 33  1  0
 33 34  2  0
 33 35  1  0
 35 36  1  0
 36 37  1  0
 37 38  1  0
 38 39  1  0
 35 40  1  0
 39 40  1  0
 38 41  1  0
 41 42  2  0
 41 43  1  0
M  END
$$$$
