3UOK_0C6_A_2_
     RDKit          3D

 25 27  0  0  0  0  0  0  0  0999 V2000
   32.3947   30.4658   59.6147 Cl  0  0  0  0  0  0  0  0  0  0  0  0
   33.4446   29.3911   58.7968 C   0  0  0  0  0  0  0  0  0  0  0  0
   32.8998   28.1919   58.3806 C   0  0  0  0  0  0  0  0  0  0  0  0
   33.6882   27.2617   57.7145 C   0  0  0  0  0  0  0  0  0  0  0  0
   35.0282   27.5425   57.4760 C   0  0  0  0  0  0  0  0  0  0  0  0
   35.5771   28.7404   57.9013 C   0  0  0  0  0  0  0  0  0  0  0  0
   34.7983   29.6733   58.5712 C   0  0  0  0  0  0  0  0  0  0  0  0
   35.4220   30.9228   58.9807 N   0  0  0  0  0  0  0  0  0  0  0  0
   36.1278   31.1176   60.2273 C   0  0  0  0  0  0  0  0  0  0  0  0
   36.2871   32.4220   60.7454 C   0  0  0  0  0  0  0  0  0  0  0  0
   36.9729   32.5748   61.9577 C   0  0  0  0  0  0  0  0  0  0  0  0
   37.4564   31.4842   62.5989 N   0  0  0  0  0  0  0  0  0  0  0  0
   37.2831   30.2775   62.0696 C   0  0  0  0  0  0  0  0  0  0  0  0
   37.8344   29.1834   62.8081 N   0  0  0  0  0  0  0  0  0  0  0  0
   38.0867   27.8349   62.1894 C   0  0  0  0  0  0  0  0  0  0  0  0
   37.5408   27.4715   60.9485 C   0  0  0  0  0  0  0  0  0  0  0  0
   37.7835   26.2155   60.4031 C   0  0  0  0  0  0  0  0  0  0  0  0
   38.5719   25.3050   61.1068 C   0  0  0  0  0  0  0  0  0  0  0  0
   38.8952   23.9354   60.5512 C   0  0  0  0  0  0  0  0  0  0  0  0
   38.2182   23.4039   59.6105 O   0  0  0  0  0  0  0  0  0  0  0  0
   39.8985   23.3414   61.0105 O   0  0  0  0  0  0  0  0  0  0  0  0
   39.1168   25.6700   62.3399 C   0  0  0  0  0  0  0  0  0  0  0  0
   38.8716   26.9222   62.8855 C   0  0  0  0  0  0  0  0  0  0  0  0
   36.6196   30.0714   60.9099 N   0  0  0  0  0  0  0  0  0  0  0  0
   35.7990   33.5118   60.1070 F   0  0  0  0  0  0  0  0  0  0  0  0
  1  2  1  0
  2  3  2  0
  3  4  1  0
  4  5  2  0
  5  6  1  0
  6  7  2  0
  2  7  1  0
  7  8  1  0
  8  9  1  0
  9 10  2  0
 10 11  1  0
 11 12  2  0
 12 13  1  0
 13 14  1  0
 14 15  1  0
 15 16  2  0
 16 17  1  0
 17 18  2  0
 18 19  1  0
 19 20  1  0
 19 21  2  0
 18 22  1  0
 15 23  1  0
 22 23  2  0
  9 24  1  0
 13 24  2  0
 10 25  1  0
M  END
$$$$
