3QD3_3Q5_A_360_
     RDKit          3D

 32 35  0  0  0  0  0  0  0  0999 V2000
  -40.6660   16.4550   12.7750 C   0  0  0  0  0  0  0  0  0  0  0  0
  -41.8590   17.0570   12.4210 C   0  0  0  0  0  0  0  0  0  0  0  0
  -42.8460   15.0070   11.6940 C   0  0  0  0  0  0  0  0  0  0  0  0
  -44.4420   18.3530   11.9070 C   0  0  0  0  0  0  0  0  0  0  0  0
  -40.5730   15.0820   12.5770 C   0  0  0  0  0  0  0  0  0  0  0  0
  -42.9360   16.3710   11.8880 C   0  0  0  0  0  0  0  0  0  0  0  0
  -41.6550   14.4070   12.0490 C   0  0  0  0  0  0  0  0  0  0  0  0
  -44.1760   17.0560   11.5220 C   0  0  0  0  0  0  0  0  0  0  0  0
  -45.6630   18.8970   11.5510 C   0  0  0  0  0  0  0  0  0  0  0  0
  -39.5730   14.0880   12.7780 C   0  0  0  0  0  0  0  0  0  0  0  0
  -46.2440   16.9380   10.5330 C   0  0  0  0  0  0  0  0  0  0  0  0
  -50.2420   21.6380   12.2420 C   0  0  0  0  0  0  0  0  0  0  0  0
  -46.8400   22.4720   13.1470 C   0  0  0  0  0  0  0  0  0  0  0  0
  -45.6190   21.7220   13.6720 C   0  0  0  0  0  0  0  0  0  0  0  0
  -47.0210   20.9300   11.2520 C   0  0  0  0  0  0  0  0  0  0  0  0
  -47.7830   21.5260   12.4210 C   0  0  0  0  0  0  0  0  0  0  0  0
  -44.9120   20.9990   12.5490 C   0  0  0  0  0  0  0  0  0  0  0  0
  -44.3720   22.0000   11.5600 C   0  0  0  0  0  0  0  0  0  0  0  0
  -52.8060   21.8810   13.4010 C   0  0  0  0  0  0  0  0  0  0  0  0
  -53.3910   23.2460   11.4280 C   0  0  0  0  0  0  0  0  0  0  0  0
  -52.8950   20.8590   11.1140 C   0  0  0  0  0  0  0  0  0  0  0  0
  -52.5490   22.0890   11.9220 C   0  0  0  0  0  0  0  0  0  0  0  0
  -45.0780   16.3410   10.8320 N   0  0  0  0  0  0  0  0  0  0  0  0
  -46.5750   18.1870   10.8750 N   0  0  0  0  0  0  0  0  0  0  0  0
  -40.0080   12.8800   12.3970 N   0  0  0  0  0  0  0  0  0  0  0  0
  -41.2670   13.0950   11.9680 N   0  0  0  0  0  0  0  0  0  0  0  0
  -45.9870   20.2100   11.9740 N   0  0  0  0  0  0  0  0  0  0  0  0
  -38.3390   14.3720   13.2870 N   0  0  0  0  0  0  0  0  0  0  0  0
  -47.2060   16.2170    9.8180 N   0  0  0  0  0  0  0  0  0  0  0  0
  -49.0020   22.2040   12.0420 N   0  0  0  0  0  0  0  0  0  0  0  0
  -50.4770   20.5740   12.7930 O   0  0  0  0  0  0  0  0  0  0  0  0
  -51.1890   22.4510   11.7000 O   0  0  0  0  0  0  0  0  0  0  0  0
  1  2  2  0
  1  5  1  0
  2  6  1  0
  3  6  2  0
  3  7  1  0
  5  7  1  0
  4  8  2  0
  6  8  1  0
  4  9  1  0
  5 10  2  0
 13 14  1  0
 13 16  1  0
 15 16  1  0
 14 17  1  0
 17 18  1  0
 19 22  1  0
 20 22  1  0
 21 22  1  0
  8 23  1  0
 11 23  2  0
  9 24  2  0
 11 24  1  0
 10 25  1  0
  7 26  2  0
 25 26  1  0
  9 27  1  0
 15 27  1  0
 17 27  1  0
 10 28  1  0
 11 29  1  0
 12 30  1  0
 16 30  1  0
 12 31  2  0
 12 32  1  0
 22 32  1  0
M  END
$$$$
