3NUS_JNZ_A_374_
     RDKit          3D

 10 11  0  0  0  0  0  0  0  0999 V2000
  -42.1896   16.7571   12.7722 C   0  0  0  0  0  0  0  0  0  0  0  0
  -43.2189   16.0032   12.2505 C   0  0  0  0  0  0  0  0  0  0  0  0
  -40.9438   16.2245   13.0254 C   0  0  0  0  0  0  0  0  0  0  0  0
  -43.0779   14.6652   11.9493 C   0  0  0  0  0  0  0  0  0  0  0  0
  -40.7767   14.8820   12.7318 C   0  0  0  0  0  0  0  0  0  0  0  0
  -41.8294   14.1566   12.2144 C   0  0  0  0  0  0  0  0  0  0  0  0
  -39.6976   13.9673   12.8322 C   0  0  0  0  0  0  0  0  0  0  0  0
  -40.0578   12.7560   12.4061 N   0  0  0  0  0  0  0  0  0  0  0  0
  -41.3400   12.8979   12.0424 N   0  0  0  0  0  0  0  0  0  0  0  0
  -38.4819   14.3291   13.3005 N   0  0  0  0  0  0  0  0  0  0  0  0
  1  2  2  0
  1  3  1  0
  2  4  1  0
  3  5  2  0
  4  6  2  0
  5  6  1  0
  5  7  1  0
  7  8  2  0
  6  9  1  0
  8  9  1  0
  7 10  1  0
M  END
$$$$
