2YK9_YK9_A_1224_
     RDKit          3D

 23 27  0  0  0  0  0  0  0  0999 V2000
    8.5998   10.3434   23.4320 C   0  0  0  0  0  0  0  0  0  0  0  0
    7.5201    9.7495   22.7932 C   0  0  0  0  0  0  0  0  0  0  0  0
    8.4429   11.5360   24.1316 C   0  0  0  0  0  0  0  0  0  0  0  0
    6.2602   10.3164   22.8642 C   0  0  0  0  0  0  0  0  0  0  0  0
   11.6314   14.7067   28.1021 C   0  0  0  0  0  0  0  0  0  0  0  0
   12.9172   14.7243   27.6036 C   0  0  0  0  0  0  0  0  0  0  0  0
   12.2006   14.4524   25.4440 C   0  0  0  0  0  0  0  0  0  0  0  0
    7.1801   12.1269   24.2064 C   0  0  0  0  0  0  0  0  0  0  0  0
    6.0783   11.4982   23.5849 C   0  0  0  0  0  0  0  0  0  0  0  0
   10.6044   14.5500   27.1736 C   0  0  0  0  0  0  0  0  0  0  0  0
   10.8554   14.4013   25.8108 C   0  0  0  0  0  0  0  0  0  0  0  0
    8.7147   14.3382   26.0488 C   0  0  0  0  0  0  0  0  0  0  0  0
    6.6882   13.3268   24.9178 C   0  0  0  0  0  0  0  0  0  0  0  0
    4.8398   12.2673   23.8787 C   0  0  0  0  0  0  0  0  0  0  0  0
    7.2628   14.2947   25.7628 C   0  0  0  0  0  0  0  0  0  0  0  0
    6.4599   15.2810   26.3622 C   0  0  0  0  0  0  0  0  0  0  0  0
    5.0874   15.3216   26.1426 C   0  0  0  0  0  0  0  0  0  0  0  0
    4.4950   14.3948   25.3064 C   0  0  0  0  0  0  0  0  0  0  0  0
   13.2104   14.6058   26.3035 N   0  0  0  0  0  0  0  0  0  0  0  0
    9.2246   14.5206   27.2984 N   0  0  0  0  0  0  0  0  0  0  0  0
    5.2800   13.4076   24.7200 C   0  0  0  0  0  0  0  0  0  0  0  0
    9.6581   14.2565   25.1198 N   0  0  0  0  0  0  0  0  0  0  0  0
    3.6889   12.0172   23.4982 O   0  0  0  0  0  0  0  0  0  0  0  0
  1  2  2  0
  1  3  1  0
  2  4  1  0
  5  6  2  0
  3  8  2  0
  4  9  2  0
  8  9  1  0
  5 10  1  0
  7 11  1  0
 10 11  2  0
  8 13  1  0
  9 14  1  0
 12 15  1  0
 13 15  2  0
 15 16  1  0
 16 17  2  0
 17 18  1  0
  6 19  1  0
  7 19  2  0
 10 20  1  0
 12 20  1  0
 13 21  1  0
 14 21  1  0
 18 21  2  0
 11 22  1  0
 12 22  2  0
 14 23  2  0
M  END
$$$$
