2JAL_YLL_A_1446_
     RDKit          3D

 12 12  0  0  0  0  0  0  0  0999 V2000
   -1.5994    9.1186   10.5583 O   0  0  0  0  0  0  0  0  0  0  0  0
   -2.2685   10.3599   10.2793 C   0  0  0  0  0  0  0  0  0  0  0  0
   -2.7332   10.3944    8.7993 C   0  0  0  0  0  0  0  0  0  0  0  0
   -3.6741    9.2667    8.3944 C   0  0  0  0  0  0  0  0  0  0  0  0
   -3.0572    7.9951    8.5987 O   0  0  0  0  0  0  0  0  0  0  0  0
   -1.4903   10.4981    7.8788 C   0  0  0  0  0  0  0  0  0  0  0  0
   -1.8517   10.6239    6.5041 O   0  0  0  0  0  0  0  0  0  0  0  0
   -0.7259   11.7715    8.3088 C   0  0  0  0  0  0  0  0  0  0  0  0
    0.4425   12.0193    7.5254 O   0  0  0  0  0  0  0  0  0  0  0  0
   -0.2252   11.7356    9.7468 C   0  0  0  0  0  0  0  0  0  0  0  0
    0.3761   12.9916   10.0239 O   0  0  0  0  0  0  0  0  0  0  0  0
   -1.3504   11.5219   10.7109 C   0  0  0  0  0  0  0  0  0  0  0  0
  1  2  1  0
  2  3  1  0
  3  4  1  0
  4  5  1  0
  3  6  1  0
  6  7  1  0
  6  8  1  0
  8  9  1  0
  8 10  1  0
 10 11  1  0
  2 12  1  0
 10 12  1  0
M  END
$$$$
