1LQE_IMA_A_250_
     RDKit          3D

 33 36  0  0  0  0  0  0  0  0999 V2000
   19.5150    6.9410   32.1460 C   0  0  0  0  0  0  0  0  0  0  0  0
   19.5270    7.1310   30.7400 C   0  0  0  0  0  0  0  0  0  0  0  0
   20.3170    6.3180   29.9190 C   0  0  0  0  0  0  0  0  0  0  0  0
   21.1170    5.3200   30.5040 C   0  0  0  0  0  0  0  0  0  0  0  0
   21.1490    5.1150   31.9240 C   0  0  0  0  0  0  0  0  0  0  0  0
   20.3250    5.9390   32.7460 C   0  0  0  0  0  0  0  0  0  0  0  0
   22.0850    4.0790   32.1910 C   0  0  0  0  0  0  0  0  0  0  0  0
   21.9960    4.4270   29.9650 N   0  0  0  0  0  0  0  0  0  0  0  0
   22.5900    3.6990   30.9250 C   0  0  0  0  0  0  0  0  0  0  0  0
   22.1110    4.1210   28.5670 C   0  0  0  0  0  0  0  0  0  0  0  0
   23.6260    2.7910   30.6180 C   0  0  0  0  0  0  0  0  0  0  0  0
   24.8580    2.9790   31.1060 N   0  0  0  0  0  0  0  0  0  0  0  0
   25.7630    1.8360   31.0880 C   0  0  0  0  0  0  0  0  0  0  0  0
   26.9050    2.0080   30.1040 C   0  0  0  0  0  0  0  0  0  0  0  0
   23.4660    1.7930   29.6200 O   0  0  0  0  0  0  0  0  0  0  0  0
   20.9470    3.3010   28.1190 C   0  0  0  0  0  0  0  0  0  0  0  0
   19.5690    3.0770   26.1630 C   0  0  0  0  0  0  0  0  0  0  0  0
   20.5050    3.7710   26.9000 C   0  0  0  0  0  0  0  0  0  0  0  0
   20.3720    2.1460   28.7280 C   0  0  0  0  0  0  0  0  0  0  0  0
   19.4040    1.4170   27.9680 C   0  0  0  0  0  0  0  0  0  0  0  0
   19.0190    1.8670   26.6690 C   0  0  0  0  0  0  0  0  0  0  0  0
   19.3260    3.7140   24.8750 C   0  0  0  0  0  0  0  0  0  0  0  0
   19.5020    5.0390   24.7510 N   0  0  0  0  0  0  0  0  0  0  0  0
   18.9960    2.9600   23.8200 N   0  0  0  0  0  0  0  0  0  0  0  0
   28.0690    3.0930   28.2700 C   0  0  0  0  0  0  0  0  0  0  0  0
   29.1510    2.1580   28.3840 C   0  0  0  0  0  0  0  0  0  0  0  0
   29.0950    1.1910   29.4200 C   0  0  0  0  0  0  0  0  0  0  0  0
   27.9710    1.1070   30.2490 C   0  0  0  0  0  0  0  0  0  0  0  0
   26.9470    3.0220   29.1230 C   0  0  0  0  0  0  0  0  0  0  0  0
   30.2840    2.1270   27.4630 N   0  0  0  0  0  0  0  0  0  0  0  0
   30.3200    0.8860   26.6670 C   0  0  0  0  0  0  0  0  0  0  0  0
   31.5800    2.2060   28.1560 C   0  0  0  0  0  0  0  0  0  0  0  0
   30.3550    3.2500   26.5230 C   0  0  0  0  0  0  0  0  0  0  0  0
  1  2  2  0
  2  3  1  0
  3  4  2  0
  4  5  1  0
  1  6  1  0
  5  6  2  0
  5  7  1  0
  4  8  1  0
  7  9  2  0
  8  9  1  0
  8 10  1  0
  9 11  1  0
 11 12  1  0
 12 13  1  0
 13 14  1  0
 11 15  2  0
 10 16  1  0
 16 18  1  0
 17 18  2  0
 16 19  2  0
 19 20  1  0
 17 21  1  0
 20 21  2  0
 17 22  1  0
 22 23  1  0
 22 24  2  0
 25 26  2  0
 26 27  1  0
 14 28  1  0
 27 28  2  0
 14 29  2  0
 25 29  1  0
 26 30  1  0
 30 31  1  0
 30 32  1  0
 30 33  1  0
M  CHG  1  30   1
M  END
$$$$
