3RF5_FUZ_B_201_
     RDKit          3D

 16 17  0  0  0  0  0  0  0  0999 V2000
  -43.5926   19.4597   12.9367 O   0  0  0  0  0  0  0  0  0  0  0  0
  -42.9978   18.3458   14.7587 O   0  0  0  0  0  0  0  0  0  0  0  0
  -47.7663   16.8531   14.1929 C   0  0  0  0  0  0  0  0  0  0  0  0
  -46.7524   16.4276   15.0652 C   0  0  0  0  0  0  0  0  0  0  0  0
  -46.3691   17.8765    8.3124 C   0  0  0  0  0  0  0  0  0  0  0  0
  -47.6770   17.6803    8.5330 C   0  0  0  0  0  0  0  0  0  0  0  0
  -45.8689   18.7193    9.2232 C   0  0  0  0  0  0  0  0  0  0  0  0
  -47.5027   17.8591   13.2485 C   0  0  0  0  0  0  0  0  0  0  0  0
  -45.4695   16.9789   14.9680 C   0  0  0  0  0  0  0  0  0  0  0  0
  -46.8264   20.0356   11.2343 C   0  0  0  0  0  0  0  0  0  0  0  0
  -45.9132   19.4075   12.2429 N   0  0  0  0  0  0  0  0  0  0  0  0
  -48.0258   18.4355    9.6303 O   0  0  0  0  0  0  0  0  0  0  0  0
  -43.8168   18.6503   13.8868 C   0  0  0  0  0  0  0  0  0  0  0  0
  -46.8693   19.0955   10.0167 C   0  0  0  0  0  0  0  0  0  0  0  0
  -46.2305   18.4309   13.1384 C   0  0  0  0  0  0  0  0  0  0  0  0
  -45.2157   17.9759   14.0006 C   0  0  0  0  0  0  0  0  0  0  0  0
  3  4  2  0
  5  6  2  0
  5  7  1  0
  3  8  1  0
  4  9  1  0
 10 11  1  0
  6 12  1  0
  1 13  2  0
  2 13  1  0
  7 14  2  0
 10 14  1  0
 12 14  1  0
  8 15  2  0
 11 15  1  0
  9 16  2  0
 13 16  1  0
 15 16  1  0
M  END
$$$$
