2QBR_910_A_800_
     RDKit          3D

 28 30  0  0  0  0  0  0  0  0999 V2000
   44.5060   14.3611    0.4242 S   0  0  0  0  0  0  0  0  0  0  0  0
   44.6731   15.6771    1.4996 C   0  0  0  0  0  0  0  0  0  0  0  0
   45.5557   15.3189    2.5531 C   0  0  0  0  0  0  0  0  0  0  0  0
   46.0396   13.9909    2.4021 C   0  0  0  0  0  0  0  0  0  0  0  0
   45.5399   13.3218    1.2556 C   0  0  0  0  0  0  0  0  0  0  0  0
   43.9801   16.8864    1.2678 C   0  0  0  0  0  0  0  0  0  0  0  0
   44.0101   17.8013    2.0888 O   0  0  0  0  0  0  0  0  0  0  0  0
   43.3486   16.9877    0.2110 O   0  0  0  0  0  0  0  0  0  0  0  0
   45.8045   11.9327    0.7603 C   0  0  0  0  0  0  0  0  0  0  0  0
   47.1262   11.3711    0.7827 C   0  0  0  0  0  0  0  0  0  0  0  0
   47.3534   10.0446    0.3121 C   0  0  0  0  0  0  0  0  0  0  0  0
   46.2490    9.2596   -0.1920 C   0  0  0  0  0  0  0  0  0  0  0  0
   44.9253    9.8123   -0.2216 C   0  0  0  0  0  0  0  0  0  0  0  0
   44.7151   11.1459    0.2580 C   0  0  0  0  0  0  0  0  0  0  0  0
   47.2406   13.2217    3.6497 Br  0  0  0  0  0  0  0  0  0  0  0  0
   45.9511   16.1384    3.6664 O   0  0  0  0  0  0  0  0  0  0  0  0
   47.1601   16.8816    3.4757 C   0  0  0  0  0  0  0  0  0  0  0  0
   47.5210   17.6205    4.7636 C   0  0  0  0  0  0  0  0  0  0  0  0
   46.7477   17.5576    5.7363 O   0  0  0  0  0  0  0  0  0  0  0  0
   48.5771   18.2587    4.7959 O   0  0  0  0  0  0  0  0  0  0  0  0
   48.6526    9.5715    0.3694 N   0  0  0  0  0  0  0  0  0  0  0  0
   49.0367    8.1555    0.4933 C   0  0  0  0  0  0  0  0  0  0  0  0
   49.0932    7.6747    1.9283 C   0  0  0  0  0  0  0  0  0  0  0  0
   47.8841    7.2428    2.5815 C   0  0  0  0  0  0  0  0  0  0  0  0
   47.9301    6.7826    3.9357 C   0  0  0  0  0  0  0  0  0  0  0  0
   49.1920    6.7613    4.6198 C   0  0  0  0  0  0  0  0  0  0  0  0
   50.4051    7.1922    3.9726 C   0  0  0  0  0  0  0  0  0  0  0  0
   50.3541    7.6525    2.6134 C   0  0  0  0  0  0  0  0  0  0  0  0
  1  2  1  0
  2  3  2  0
  3  4  1  0
  1  5  1  0
  4  5  2  0
  2  6  1  0
  6  7  1  0
  6  8  2  0
  5  9  1  0
  9 10  2  0
 10 11  1  0
 11 12  2  0
 12 13  1  0
  9 14  1  0
 13 14  2  0
  4 15  1  0
  3 16  1  0
 16 17  1  0
 17 18  1  0
 18 19  1  0
 18 20  2  0
 11 21  1  0
 21 22  1  0
 22 23  1  0
 23 24  2  0
 24 25  1  0
 25 26  2  0
 26 27  1  0
 23 28  1  0
 27 28  2  0
M  END
$$$$
