3GC5_2MQ_A_400_
     RDKit          3D

 20 22  0  0  0  0  0  0  0  0999 V2000
   17.8575   17.2214   22.9225 C   0  0  0  0  0  0  0  0  0  0  0  0
   18.9666   17.5685   23.3619 O   0  0  0  0  0  0  0  0  0  0  0  0
   16.8416   16.8931   23.6983 N   0  0  0  0  0  0  0  0  0  0  0  0
   15.6936   16.4619   23.1954 C   0  0  0  0  0  0  0  0  0  0  0  0
   14.6987   16.1933   24.0132 N   0  0  0  0  0  0  0  0  0  0  0  0
   15.5209   16.2988   21.9198 N   0  0  0  0  0  0  0  0  0  0  0  0
   16.4747   16.6011   20.9678 C   0  0  0  0  0  0  0  0  0  0  0  0
   16.1973   16.6080   19.5914 C   0  0  0  0  0  0  0  0  0  0  0  0
   14.8593   16.1725   18.9428 C   0  0  0  0  0  0  0  0  0  0  0  0
   14.9970   14.6919   18.3990 C   0  0  0  0  0  0  0  0  0  0  0  0
   13.9760   14.4884   17.3537 N   0  0  0  0  0  0  0  0  0  0  0  0
   17.1979   17.0619   18.7257 C   0  0  0  0  0  0  0  0  0  0  0  0
   17.2552   17.1500   17.3768 N   0  0  0  0  0  0  0  0  0  0  0  0
   18.4003   17.6430   17.0587 C   0  0  0  0  0  0  0  0  0  0  0  0
   18.8407   17.8652   15.8333 N   0  0  0  0  0  0  0  0  0  0  0  0
   18.0964   17.6826   14.6108 C   0  0  0  0  0  0  0  0  0  0  0  0
   19.1847   17.7692   18.1047 N   0  0  0  0  0  0  0  0  0  0  0  0
   18.4772   17.3770   19.1765 C   0  0  0  0  0  0  0  0  0  0  0  0
   18.7440   17.4580   20.5416 C   0  0  0  0  0  0  0  0  0  0  0  0
   17.7010   17.1040   21.4181 C   0  0  0  0  0  0  0  0  0  0  0  0
  1  2  2  0
  1  3  1  0
  3  4  1  0
  4  5  1  0
  4  6  2  0
  6  7  1  0
  7  8  1  0
  8  9  1  0
  9 10  1  0
 10 11  1  0
  8 12  2  0
 12 13  1  0
 13 14  1  0
 14 15  1  0
 15 16  1  0
 14 17  2  0
 12 18  1  0
 17 18  1  0
 18 19  2  0
  1 20  1  0
  7 20  2  0
 19 20  1  0
M  END
$$$$
