1BZJ_PIC_A_301_
     RDKit          3D

 20 21  0  0  0  0  0  0  0  0999 V2000
   10.2195   47.2557   21.8768 C   0  0  0  0  0  0  0  0  0  0  0  0
    9.3271   46.6950   20.8727 C   0  0  0  0  0  0  0  0  0  0  0  0
    8.4828   47.5338   20.1159 C   0  0  0  0  0  0  0  0  0  0  0  0
    6.7453   43.7527   17.6819 C   0  0  0  0  0  0  0  0  0  0  0  0
    7.6003   42.9209   18.4294 C   0  0  0  0  0  0  0  0  0  0  0  0
    8.4517   43.4125   19.4120 C   0  0  0  0  0  0  0  0  0  0  0  0
    8.4785   44.7756   19.6544 C   0  0  0  0  0  0  0  0  0  0  0  0
    9.3276   45.3069   20.6305 C   0  0  0  0  0  0  0  0  0  0  0  0
    5.8302   43.1702   16.6047 C   0  0  0  0  0  0  0  0  0  0  0  0
    7.6294   47.0325   19.1437 C   0  0  0  0  0  0  0  0  0  0  0  0
    7.6164   45.6485   18.8953 C   0  0  0  0  0  0  0  0  0  0  0  0
    6.7541   45.1119   17.9216 C   0  0  0  0  0  0  0  0  0  0  0  0
    5.0558   43.9161   15.9371 O   0  0  0  0  0  0  0  0  0  0  0  0
    5.8530   41.9284   16.4254 O   0  0  0  0  0  0  0  0  0  0  0  0
   10.8463   48.3657   21.3932 F   0  0  0  0  0  0  0  0  0  0  0  0
   11.1888   46.3524   22.1537 F   0  0  0  0  0  0  0  0  0  0  0  0
    9.3254   47.7648   23.3621 P   0  0  0  0  0  0  0  0  0  0  0  0
   10.2750   48.3367   24.3504 O   0  0  0  0  0  0  0  0  0  0  0  0
    8.7694   46.6233   24.1463 O   0  0  0  0  0  0  0  0  0  0  0  0
    8.0748   48.8410   23.1721 O   0  0  0  0  0  0  0  0  0  0  0  0
  1  2  1  0
  2  3  2  0
  4  5  1  0
  5  6  2  0
  6  7  1  0
  2  8  1  0
  7  8  2  0
  4  9  1  0
  3 10  1  0
  7 11  1  0
 10 11  2  0
  4 12  2  0
 11 12  1  0
  9 13  1  0
  9 14  2  0
  1 15  1  0
  1 16  1  0
  1 17  1  0
 17 18  1  0
 17 19  1  0
 17 20  2  0
M  END
$$$$
