1GI8_BMZ_B_246_
     RDKit          3D

 31 33  0  0  0  0  0  0  0  0999 V2000
    8.7183    1.6077   24.5032 C   0  0  0  0  0  0  0  0  0  0  0  0
    9.4804    1.4213   23.3280 C   0  0  0  0  0  0  0  0  0  0  0  0
   10.0893    2.4931   22.6818 C   0  0  0  0  0  0  0  0  0  0  0  0
    9.9042    3.7419   23.2440 C   0  0  0  0  0  0  0  0  0  0  0  0
    9.1974    3.9729   24.3619 C   0  0  0  0  0  0  0  0  0  0  0  0
    8.5938    2.9363   25.0128 C   0  0  0  0  0  0  0  0  0  0  0  0
    8.1130    0.5562   25.1742 C   0  0  0  0  0  0  0  0  0  0  0  0
    7.6552    0.7833   26.3714 N   0  0  0  0  0  0  0  0  0  0  0  0
    8.0207   -0.6227   24.5994 N   0  0  0  0  0  0  0  0  0  0  0  0
   10.3344    4.8985   22.8931 N   0  0  0  0  0  0  0  0  0  0  0  0
    9.1622    5.2331   24.7281 N   0  0  0  0  0  0  0  0  0  0  0  0
    9.8911    5.7677   23.7608 C   0  0  0  0  0  0  0  0  0  0  0  0
   10.1374    7.1293   23.6054 C   0  0  0  0  0  0  0  0  0  0  0  0
    9.7362    8.0421   24.5817 C   0  0  0  0  0  0  0  0  0  0  0  0
    9.9105    9.4083   24.4193 C   0  0  0  0  0  0  0  0  0  0  0  0
   10.5061    9.9022   23.2612 C   0  0  0  0  0  0  0  0  0  0  0  0
   10.9247    9.0247   22.2715 C   0  0  0  0  0  0  0  0  0  0  0  0
   10.7467    7.6463   22.4351 C   0  0  0  0  0  0  0  0  0  0  0  0
   11.1887    6.7961   21.4233 O   0  0  0  0  0  0  0  0  0  0  0  0
    9.6047    0.4246   22.9240 H   0  0  0  0  0  0  0  0  0  0  0  0
   10.6754    2.3494   21.7862 H   0  0  0  0  0  0  0  0  0  0  0  0
    8.0255    3.1442   25.9011 H   0  0  0  0  0  0  0  0  0  0  0  0
    7.7264    1.6958   26.7900 H   0  0  0  0  0  0  0  0  0  0  0  0
    7.1943    0.0978   26.9329 H   0  0  0  0  0  0  0  0  0  0  0  0
    8.3872   -0.7875   23.6768 H   0  0  0  0  0  0  0  0  0  0  0  0
    7.5704   -1.3889   25.0505 H   0  0  0  0  0  0  0  0  0  0  0  0
   10.8876    5.1312   22.1228 H   0  0  0  0  0  0  0  0  0  0  0  0
    9.2966    7.6653   25.4861 H   0  0  0  0  0  0  0  0  0  0  0  0
    9.5809   10.0770   25.2014 H   0  0  0  0  0  0  0  0  0  0  0  0
   10.6409   10.9639   23.1378 H   0  0  0  0  0  0  0  0  0  0  0  0
   11.3973    9.4061   21.3761 H   0  0  0  0  0  0  0  0  0  0  0  0
  1  2  2  0
  2  3  1  0
  3  4  2  0
  4  5  1  0
  1  6  1  0
  5  6  2  0
  1  7  1  0
  7  8  1  0
  7  9  2  0
  4 10  1  0
  5 11  1  0
 10 12  1  0
 11 12  2  0
 12 13  1  0
 13 14  2  0
 14 15  1  0
 15 16  2  0
 16 17  1  0
 13 18  1  0
 17 18  2  0
 18 19  1  0
  2 20  1  0
  3 21  1  0
  6 22  1  0
  8 23  1  0
  8 24  1  0
  9 25  1  0
  9 26  1  0
 10 27  1  0
 14 28  1  0
 15 29  1  0
 16 30  1  0
 17 31  1  0
M  CHG  1   9   1
M  END
$$$$
