3S72_EVE_B_1_
     RDKit          3D

 13 14  0  0  0  0  0  0  0  0999 V2000
   15.5820   -0.3750   16.2530 N   0  0  0  0  0  0  0  0  0  0  0  0
   15.0500    0.9700   16.8670 S   0  0  0  0  0  0  0  0  0  0  0  0
   15.0080    3.2680   15.3490 N   0  0  0  0  0  0  0  0  0  0  0  0
   15.5490    1.1130   18.1900 O   0  0  0  0  0  0  0  0  0  0  0  0
   15.7310    2.2650   15.9790 C   0  0  0  0  0  0  0  0  0  0  0  0
   17.0990    2.4290   15.8280 N   0  0  0  0  0  0  0  0  0  0  0  0
   13.6300    1.1000   16.6920 O   0  0  0  0  0  0  0  0  0  0  0  0
   15.8260    5.2200   14.0690 C   0  0  0  0  0  0  0  0  0  0  0  0
   17.0480    5.7890   13.6630 C   0  0  0  0  0  0  0  0  0  0  0  0
   18.3300    5.3130   13.9600 C   0  0  0  0  0  0  0  0  0  0  0  0
   18.4910    4.1920   14.7530 C   0  0  0  0  0  0  0  0  0  0  0  0
   17.2520    3.5660   15.0970 C   0  0  0  0  0  0  0  0  0  0  0  0
   15.9790    4.0500   14.8240 C   0  0  0  0  0  0  0  0  0  0  0  0
  1  2  1  0
  2  4  2  0
  2  5  1  0
  3  5  1  0
  5  6  2  0
  2  7  2  0
  8  9  1  0
  9 10  2  0
 10 11  1  0
  6 12  1  0
 11 12  2  0
  3 13  1  0
  8 13  2  0
 12 13  1  0
M  END
$$$$
