3D28_B34_A_579_
     RDKit          3D

 28 31  0  0  0  0  0  0  0  0999 V2000
   32.5488   -5.3180   16.7694 O   0  0  0  0  0  0  0  0  0  0  0  0
   31.8872   -6.5008   16.2568 S   0  0  0  0  0  0  0  0  0  0  0  0
   30.5480   -6.8685   16.6680 O   0  0  0  0  0  0  0  0  0  0  0  0
   32.9411   -7.8364   16.6044 C   0  0  0  0  0  0  0  0  0  0  0  0
   33.3001   -8.2939   17.8540 C   0  0  0  0  0  0  0  0  0  0  0  0
   34.1683   -9.3910   17.9011 C   0  0  0  0  0  0  0  0  0  0  0  0
   32.0156   -6.6460   14.6191 N   0  0  0  0  0  0  0  0  0  0  0  0
   32.8058   -7.6326   14.2855 C   0  0  0  0  0  0  0  0  0  0  0  0
   33.3942   -8.3944   15.4104 C   0  0  0  0  0  0  0  0  0  0  0  0
   34.2582   -9.4836   15.4558 C   0  0  0  0  0  0  0  0  0  0  0  0
   34.6424   -9.9806   16.7102 C   0  0  0  0  0  0  0  0  0  0  0  0
   33.0359   -7.9472   12.8632 C   0  0  0  0  0  0  0  0  0  0  0  0
   33.5206   -9.1956   12.2162 C   0  0  0  0  0  0  0  0  0  0  0  0
   33.8610  -10.2144   12.8003 O   0  0  0  0  0  0  0  0  0  0  0  0
   33.5220   -8.9627   10.8438 N   0  0  0  0  0  0  0  0  0  0  0  0
   33.0344   -7.6291   10.4926 C   0  0  0  0  0  0  0  0  0  0  0  0
   31.7907   -7.6862    9.5843 C   0  0  0  0  0  0  0  0  0  0  0  0
   31.3032   -6.3015    9.1648 C   0  0  0  0  0  0  0  0  0  0  0  0
   30.6142   -8.4586   10.1951 C   0  0  0  0  0  0  0  0  0  0  0  0
   32.7703   -7.0906   11.8719 C   0  0  0  0  0  0  0  0  0  0  0  0
   32.2964   -5.8185   12.0708 O   0  0  0  0  0  0  0  0  0  0  0  0
   33.9457   -9.9498    9.8637 C   0  0  0  0  0  0  0  0  0  0  0  0
   35.3637   -9.7584    9.4052 C   0  0  0  0  0  0  0  0  0  0  0  0
   35.6826   -9.9928    8.0649 C   0  0  0  0  0  0  0  0  0  0  0  0
   36.9993   -9.8203    7.6225 C   0  0  0  0  0  0  0  0  0  0  0  0
   36.3456   -9.3481   10.3117 C   0  0  0  0  0  0  0  0  0  0  0  0
   37.6591   -9.1687    9.8665 C   0  0  0  0  0  0  0  0  0  0  0  0
   37.9862   -9.4088    8.5249 C   0  0  0  0  0  0  0  0  0  0  0  0
  1  2  2  0
  2  3  2  0
  2  4  1  0
  4  5  2  0
  5  6  1  0
  2  7  1  0
  7  8  2  0
  8  9  1  0
  4  9  1  0
  9 10  2  0
 10 11  1  0
  6 11  2  0
  8 12  1  0
 12 13  1  0
 13 14  2  0
 13 15  1  0
 15 16  1  0
 16 17  1  0
 17 18  1  0
 17 19  1  0
 16 20  1  0
 12 20  2  0
 20 21  1  0
 15 22  1  0
 22 23  1  0
 23 24  2  0
 24 25  1  0
 23 26  1  0
 26 27  2  0
 25 28  2  0
 27 28  1  0
M  END
$$$$
