1UTN_ABN_A_246_
     RDKit          3D

  8  8  0  0  0  0  0  0  0  0999 V2000
   -4.7001    9.8298   19.2821 N   0  0  0  0  0  0  0  0  0  0  0  0
   -3.3950    9.7746   19.8569 C   0  0  0  0  0  0  0  0  0  0  0  0
   -2.8825    8.4205   19.8524 C   0  0  0  0  0  0  0  0  0  0  0  0
   -3.4394    7.3328   20.5042 C   0  0  0  0  0  0  0  0  0  0  0  0
   -2.8702    6.0282   20.5505 C   0  0  0  0  0  0  0  0  0  0  0  0
   -1.7316    5.6957   19.7510 C   0  0  0  0  0  0  0  0  0  0  0  0
   -1.1875    6.7591   19.1140 C   0  0  0  0  0  0  0  0  0  0  0  0
   -1.7318    8.0506   19.0881 C   0  0  0  0  0  0  0  0  0  0  0  0
  1  2  1  0
  2  3  1  0
  3  4  2  0
  4  5  1  0
  5  6  2  0
  6  7  1  0
  3  8  1  0
  7  8  2  0
M  END
$$$$
