3VV6_B00_A_510_
     RDKit          3D

 18 20  0  0  0  0  0  0  0  0999 V2000
   17.4676   41.5301   -9.8360 O   0  0  0  0  0  0  0  0  0  0  0  0
   17.2187   40.5274   -9.1329 C   0  0  0  0  0  0  0  0  0  0  0  0
   16.6269   40.6695   -7.8522 N   0  0  0  0  0  0  0  0  0  0  0  0
   16.3239   42.0209   -7.3613 C   0  0  0  0  0  0  0  0  0  0  0  0
   16.3801   39.5010   -7.0714 C   0  0  0  0  0  0  0  0  0  0  0  0
   15.8264   39.5880   -5.8258 N   0  0  0  0  0  0  0  0  0  0  0  0
   16.6901   38.2782   -7.5811 N   0  0  0  0  0  0  0  0  0  0  0  0
   17.2618   38.1204   -8.8159 C   0  0  0  0  0  0  0  0  0  0  0  0
   17.5193   39.2495   -9.6078 C   0  0  0  0  0  0  0  0  0  0  0  0
   17.5663   36.7484   -9.3272 C   0  0  0  0  0  0  0  0  0  0  0  0
   18.4624   36.7846  -10.5732 C   0  0  0  0  0  0  0  0  0  0  0  0
   19.0206   36.2457   -9.2533 C   0  0  0  0  0  0  0  0  0  0  0  0
   20.0022   37.1450   -8.5775 C   0  0  0  0  0  0  0  0  0  0  0  0
   19.9318   37.3559   -7.1903 C   0  0  0  0  0  0  0  0  0  0  0  0
   20.8487   38.1875   -6.5422 C   0  0  0  0  0  0  0  0  0  0  0  0
   21.8598   38.8031   -7.2837 C   0  0  0  0  0  0  0  0  0  0  0  0
   21.9443   38.5914   -8.6593 C   0  0  0  0  0  0  0  0  0  0  0  0
   21.0275   37.7578   -9.3093 C   0  0  0  0  0  0  0  0  0  0  0  0
  1  2  2  0
  2  3  1  0
  3  4  1  0
  3  5  1  0
  5  6  1  0
  5  7  2  0
  7  8  1  0
  2  9  1  0
  8  9  2  0
  8 10  1  0
 10 11  1  0
 11 12  1  0
 10 12  1  0
 12 13  1  0
 13 14  2  0
 14 15  1  0
 15 16  2  0
 16 17  1  0
 17 18  2  0
 13 18  1  0
M  END
$$$$
