2WI3_ZZ3_A_1225_
     RDKit          3D

 10 10  0  0  0  0  0  0  0  0999 V2000
    8.4404    5.6840   12.6856 N   0  0  0  0  0  0  0  0  0  0  0  0
    8.2940    4.3937   13.0714 C   0  0  0  0  0  0  0  0  0  0  0  0
    9.3718    3.5839   13.1421 N   0  0  0  0  0  0  0  0  0  0  0  0
    7.0706    3.9166   13.3853 N   0  0  0  0  0  0  0  0  0  0  0  0
    6.9246    2.6307   13.7697 C   0  0  0  0  0  0  0  0  0  0  0  0
    5.5605    2.0995   14.1192 C   0  0  0  0  0  0  0  0  0  0  0  0
    8.0031    1.8210   13.8397 N   0  0  0  0  0  0  0  0  0  0  0  0
    9.2264    2.2983   13.5271 C   0  0  0  0  0  0  0  0  0  0  0  0
   10.5804    1.2822   13.6156 S   0  0  0  0  0  0  0  0  0  0  0  0
   10.3563    0.1183   14.9198 C   0  0  0  0  0  0  0  0  0  0  0  0
  1  2  1  0
  2  3  2  0
  2  4  1  0
  4  5  2  0
  5  6  1  0
  5  7  1  0
  3  8  1  0
  7  8  2  0
  8  9  1  0
  9 10  1  0
M  END
$$$$
