2XHT_C0Y_A_1224_
     RDKit          3D

 19 20  0  0  0  0  0  0  0  0999 V2000
   34.1827   11.5590   24.1969 C   0  0  0  0  0  0  0  0  0  0  0  0
   33.1768   12.0465   23.1536 C   0  0  0  0  0  0  0  0  0  0  0  0
   33.2372   13.5814   23.1144 C   0  0  0  0  0  0  0  0  0  0  0  0
   33.5987   11.5055   21.7841 C   0  0  0  0  0  0  0  0  0  0  0  0
   31.7586   11.5738   23.5139 C   0  0  0  0  0  0  0  0  0  0  0  0
   31.6114   10.9274   24.7273 C   0  0  0  0  0  0  0  0  0  0  0  0
   30.3783   10.4816   25.1727 C   0  0  0  0  0  0  0  0  0  0  0  0
   29.2518   10.6920   24.3855 C   0  0  0  0  0  0  0  0  0  0  0  0
   29.3590   11.3352   23.1663 C   0  0  0  0  0  0  0  0  0  0  0  0
   30.5982   11.7820   22.7160 C   0  0  0  0  0  0  0  0  0  0  0  0
   30.6803   12.4099   21.4933 O   0  0  0  0  0  0  0  0  0  0  0  0
   30.2579    9.8324   26.5148 C   0  0  0  0  0  0  0  0  0  0  0  0
   29.5287   10.3297   27.3529 O   0  0  0  0  0  0  0  0  0  0  0  0
   31.0289    8.7527   26.7977 N   0  0  0  0  0  0  0  0  0  0  0  0
   31.0715    8.1407   28.1329 C   0  0  0  0  0  0  0  0  0  0  0  0
   30.5000    6.7365   28.0682 C   0  0  0  0  0  0  0  0  0  0  0  0
   31.1891    5.9387   27.0947 O   0  0  0  0  0  0  0  0  0  0  0  0
   31.0610    6.5291   25.7924 C   0  0  0  0  0  0  0  0  0  0  0  0
   31.6518    7.9291   25.7593 C   0  0  0  0  0  0  0  0  0  0  0  0
  1  2  1  0
  2  3  1  0
  2  4  1  0
  2  5  1  0
  5  6  2  0
  6  7  1  0
  7  8  2  0
  8  9  1  0
  5 10  1  0
  9 10  2  0
 10 11  1  0
  7 12  1  0
 12 13  2  0
 12 14  1  0
 14 15  1  0
 15 16  1  0
 16 17  1  0
 17 18  1  0
 14 19  1  0
 18 19  1  0
M  END
$$$$
