2H4K_509_A_300_
     RDKit          3D

 20 21  0  0  0  0  0  0  0  0999 V2000
   46.4064    9.2287    0.1374 C   0  0  0  0  0  0  0  0  0  0  0  0
   45.1010    9.7310    0.0789 C   0  0  0  0  0  0  0  0  0  0  0  0
   44.8397   11.0515    0.4588 C   0  0  0  0  0  0  0  0  0  0  0  0
   45.9010   11.8769    0.8714 C   0  0  0  0  0  0  0  0  0  0  0  0
   47.2094   11.3637    0.9299 C   0  0  0  0  0  0  0  0  0  0  0  0
   47.4636   10.0401    0.5570 C   0  0  0  0  0  0  0  0  0  0  0  0
   45.6286   13.2473    1.2825 C   0  0  0  0  0  0  0  0  0  0  0  0
   46.0866   13.9013    2.3860 C   0  0  0  0  0  0  0  0  0  0  0  0
   45.6442   15.2325    2.5464 C   0  0  0  0  0  0  0  0  0  0  0  0
   44.8008   15.5760    1.5159 C   0  0  0  0  0  0  0  0  0  0  0  0
   44.5985   14.2864    0.4051 S   0  0  0  0  0  0  0  0  0  0  0  0
   44.0937   16.9607    1.3113 C   0  0  0  0  0  0  0  0  0  0  0  0
   43.6653   17.1670    0.1396 O   0  0  0  0  0  0  0  0  0  0  0  0
   44.0249   17.7444    2.3060 O   0  0  0  0  0  0  0  0  0  0  0  0
   46.0081   16.0241    3.5819 O   0  0  0  0  0  0  0  0  0  0  0  0
   47.2176   16.7685    3.3723 C   0  0  0  0  0  0  0  0  0  0  0  0
   47.5940   17.4866    4.6785 C   0  0  0  0  0  0  0  0  0  0  0  0
   48.6669   18.1235    4.6352 O   0  0  0  0  0  0  0  0  0  0  0  0
   46.8302   17.3840    5.6654 O   0  0  0  0  0  0  0  0  0  0  0  0
   47.2683   13.1370    3.6152 Br  0  0  0  0  0  0  0  0  0  0  0  0
  1  2  2  0
  2  3  1  0
  3  4  2  0
  4  5  1  0
  1  6  1  0
  5  6  2  0
  4  7  1  0
  7  8  2  0
  8  9  1  0
  9 10  2  0
  7 11  1  0
 10 11  1  0
 10 12  1  0
 12 13  2  0
 12 14  1  0
  9 15  1  0
 15 16  1  0
 16 17  1  0
 17 18  2  0
 17 19  1  0
  8 20  1  0
M  END
$$$$
