2ZFP_19U_H_801_
     RDKit          3D

 22 23  0  0  0  0  0  0  0  0999 V2000
   16.4438  -15.6947   23.3468 N   0  0  0  0  0  0  0  0  0  0  0  0
   17.6581  -14.8773   23.1173 C   0  0  0  0  0  0  0  0  0  0  0  0
   17.3026  -13.5457   22.4685 C   0  0  0  0  0  0  0  0  0  0  0  0
   16.3016  -13.0016   22.9246 O   0  0  0  0  0  0  0  0  0  0  0  0
   18.3080  -14.5847   24.4986 C   0  0  0  0  0  0  0  0  0  0  0  0
   19.7410  -14.0578   24.2904 C   0  0  0  0  0  0  0  0  0  0  0  0
   18.0278  -12.9951   21.4574 N   0  0  0  0  0  0  0  0  0  0  0  0
   17.7049  -11.6808   20.9155 C   0  0  0  0  0  0  0  0  0  0  0  0
   16.2506  -11.5190   20.5678 C   0  0  0  0  0  0  0  0  0  0  0  0
   15.6410  -12.4786   20.1131 O   0  0  0  0  0  0  0  0  0  0  0  0
   18.6173  -11.7152   19.6598 C   0  0  0  0  0  0  0  0  0  0  0  0
   19.9052  -12.3663   20.2407 C   0  0  0  0  0  0  0  0  0  0  0  0
   19.3251  -13.5522   21.0582 C   0  0  0  0  0  0  0  0  0  0  0  0
   15.6253  -10.3324   20.7885 N   0  0  0  0  0  0  0  0  0  0  0  0
   14.2329  -10.2270   20.3590 C   0  0  0  0  0  0  0  0  0  0  0  0
   13.2468  -10.2027   21.5293 C   0  0  0  0  0  0  0  0  0  0  0  0
   12.3897  -11.2969   21.6978 C   0  0  0  0  0  0  0  0  0  0  0  0
   11.4702  -11.3284   22.7481 C   0  0  0  0  0  0  0  0  0  0  0  0
   11.3990  -10.2576   23.6459 C   0  0  0  0  0  0  0  0  0  0  0  0
   12.2493   -9.1533   23.4923 C   0  0  0  0  0  0  0  0  0  0  0  0
   13.1667   -9.1348   22.4331 C   0  0  0  0  0  0  0  0  0  0  0  0
   12.1413   -7.8166   24.6347 Cl  0  0  0  0  0  0  0  0  0  0  0  0
  1  2  1  0
  2  3  1  0
  3  4  2  0
  2  5  1  0
  5  6  1  0
  3  7  1  0
  7  8  1  0
  8  9  1  0
  9 10  2  0
  8 11  1  0
 11 12  1  0
  7 13  1  0
 12 13  1  0
  9 14  1  0
 14 15  1  0
 15 16  1  0
 16 17  2  0
 17 18  1  0
 18 19  2  0
 19 20  1  0
 16 21  1  0
 20 21  2  0
 20 22  1  0
M  END
$$$$
