4ARA_C56_B_600_AA
     RDKit          3D

 25 26  0  0  0  0  0  0  0  0999 V2000
    9.8920   -5.4670  -35.7690 O   0  0  0  0  0  0  0  0  0  0  0  0
    9.7940   -6.6860  -35.9000 C   0  0  0  0  0  0  0  0  0  0  0  0
   11.0410   -7.5420  -35.7770 C   0  0  0  0  0  0  0  0  0  0  0  0
   11.2160   -8.8460  -36.3590 C   0  0  0  0  0  0  0  0  0  0  0  0
   10.1600   -9.2840  -37.0850 O   0  0  0  0  0  0  0  0  0  0  0  0
   10.2750  -10.3680  -37.9850 C   0  0  0  0  0  0  0  0  0  0  0  0
   12.3900   -9.5850  -36.1830 C   0  0  0  0  0  0  0  0  0  0  0  0
   13.5270   -9.1460  -35.4320 C   0  0  0  0  0  0  0  0  0  0  0  0
   14.5910  -10.0560  -35.3440 N   0  0  0  0  0  0  0  0  0  0  0  0
   14.3940  -11.4900  -35.6690 C   0  0  0  0  0  0  0  0  0  0  0  0
   16.0010   -9.9090  -34.9020 C   0  0  0  0  0  0  0  0  0  0  0  0
   13.3280   -7.8430  -34.8620 C   0  0  0  0  0  0  0  0  0  0  0  0
   14.2350   -7.0170  -34.0360 N   0  0  0  0  0  0  0  0  0  0  0  0
   15.4360   -7.1420  -34.0640 O   0  0  0  0  0  0  0  0  0  0  0  0
   13.7370   -6.0610  -33.4810 O   0  0  0  0  0  0  0  0  0  0  0  0
   12.1250   -7.1160  -35.0530 C   0  0  0  0  0  0  0  0  0  0  0  0
    8.5100   -7.2370  -36.1550 N   0  0  0  0  0  0  0  0  0  0  0  0
    7.2570   -6.4290  -36.2170 C   0  0  0  0  0  0  0  0  0  0  0  0
    6.9970   -5.6140  -37.5580 C   0  0  0  0  0  0  0  0  0  0  0  0
    5.4820   -5.6680  -37.9600 C   0  0  0  0  0  0  0  0  0  0  0  0
    4.9160   -4.2530  -37.8750 C   0  0  0  0  0  0  0  0  0  0  0  0
    6.1180   -3.3530  -37.5880 C   0  0  0  0  0  0  0  0  0  0  0  0
    7.3400   -4.1740  -37.2950 N   0  0  0  0  0  0  0  0  0  0  0  0
    8.5170   -3.5370  -37.9600 C   0  0  0  0  0  0  0  0  0  0  0  0
    8.5100   -2.0130  -37.9850 C   0  0  0  0  0  0  0  0  0  0  0  0
  1  2  2  0
  2  3  1  0
  3  4  2  0
  4  5  1  0
  5  6  1  0
  4  7  1  0
  7  8  2  0
  8  9  1  0
  9 10  1  0
  9 11  1  0
  8 12  1  0
 12 13  1  0
 13 14  1  0
 13 15  2  0
  3 16  1  0
 12 16  2  0
  2 17  1  0
 17 18  1  0
 18 19  1  0
 19 20  1  0
 20 21  1  0
 21 22  1  0
 19 23  1  0
 22 23  1  0
 23 24  1  0
 24 25  1  0
M  CHG  2  13   1  14  -1
M  END
$$$$
