3RYY_RYY_A_262_
     RDKit          3D

 16 16  0  0  0  0  0  0  0  0999 V2000
   18.4647    5.7681   13.5596 N   0  0  0  0  0  0  0  0  0  0  0  0
   15.0401    0.9476   16.8884 S   0  0  0  0  0  0  0  0  0  0  0  0
   16.7077    4.5635   14.6830 C   0  0  0  0  0  0  0  0  0  0  0  0
   15.3223    4.4828   14.9308 C   0  0  0  0  0  0  0  0  0  0  0  0
   14.8099    3.3771   15.6111 C   0  0  0  0  0  0  0  0  0  0  0  0
   15.6800    2.3484   16.0787 C   0  0  0  0  0  0  0  0  0  0  0  0
   17.0564    2.4641   15.8257 C   0  0  0  0  0  0  0  0  0  0  0  0
   17.5738    3.5477   15.1365 C   0  0  0  0  0  0  0  0  0  0  0  0
   17.2132    5.7527   13.9082 C   0  0  0  0  0  0  0  0  0  0  0  0
   16.4458    6.6945   13.6693 O   0  0  0  0  0  0  0  0  0  0  0  0
   18.9752    6.8659   12.7053 C   0  0  0  0  0  0  0  0  0  0  0  0
   19.5178    8.2522   14.5926 C   0  0  0  0  0  0  0  0  0  0  0  0
   13.5934    1.0137   16.7274 O   0  0  0  0  0  0  0  0  0  0  0  0
   20.0423    7.5571   13.3899 C   0  0  0  0  0  0  0  0  0  0  0  0
   15.5786    1.0341   18.2486 O   0  0  0  0  0  0  0  0  0  0  0  0
   15.6162   -0.3293   16.1389 N   0  0  0  0  0  0  0  0  0  0  0  0
  3  4  2  0
  4  5  1  0
  2  6  1  0
  5  6  2  0
  6  7  1  0
  3  8  1  0
  7  8  2  0
  1  9  1  0
  3  9  1  0
  9 10  2  0
  1 11  1  0
  2 13  2  0
 11 14  1  0
 12 14  1  0
  2 15  2  0
  2 16  1  0
M  END
$$$$
