3SBI_E90_A_266_
     RDKit          3D

 20 21  0  0  0  0  0  0  0  0999 V2000
   -1.4202    7.6441   14.2701 N   0  0  0  0  0  0  0  0  0  0  0  0
   -1.3586    7.7954   12.9093 C   0  0  0  0  0  0  0  0  0  0  0  0
   -1.0994    8.9548   12.2635 N   0  0  0  0  0  0  0  0  0  0  0  0
   -0.9267   10.0719   13.0447 C   0  0  0  0  0  0  0  0  0  0  0  0
   -0.9202    9.9695   14.4526 C   0  0  0  0  0  0  0  0  0  0  0  0
   -1.2405    8.7192   15.0382 C   0  0  0  0  0  0  0  0  0  0  0  0
   -1.5354    6.4636   11.8539 S   0  0  0  0  0  0  0  0  0  0  0  0
   -2.0719    5.1539   13.0184 C   0  0  0  0  0  0  0  0  0  0  0  0
   -3.5499    5.2928   13.4251 C   0  0  0  0  0  0  0  0  0  0  0  0
   -4.2650    6.2467   13.0648 O   0  0  0  0  0  0  0  0  0  0  0  0
   -4.1491    4.2164   14.2798 C   0  0  0  0  0  0  0  0  0  0  0  0
   -3.3502    3.1343   14.6900 C   0  0  0  0  0  0  0  0  0  0  0  0
   -3.8943    2.1260   15.4478 C   0  0  0  0  0  0  0  0  0  0  0  0
   -5.2483    2.1709   15.7574 C   0  0  0  0  0  0  0  0  0  0  0  0
   -6.0703    3.1960   15.3642 C   0  0  0  0  0  0  0  0  0  0  0  0
   -5.4892    4.2492   14.6544 C   0  0  0  0  0  0  0  0  0  0  0  0
   -5.8948    0.8295   16.7218 S   0  0  0  0  0  0  0  0  0  0  0  0
   -5.3400    1.0246   18.0482 O   0  0  0  0  0  0  0  0  0  0  0  0
   -7.3497    0.9218   16.5825 O   0  0  0  0  0  0  0  0  0  0  0  0
   -5.2758   -0.5495   16.1066 N   0  0  0  0  0  0  0  0  0  0  0  0
  1  2  2  0
  2  3  1  0
  3  4  2  0
  4  5  1  0
  1  6  1  0
  5  6  2  0
  2  7  1  0
  7  8  1  0
  8  9  1  0
  9 10  2  0
  9 11  1  0
 11 12  2  0
 12 13  1  0
 13 14  2  0
 14 15  1  0
 11 16  1  0
 15 16  2  0
 14 17  1  0
 17 18  2  0
 17 19  2  0
 17 20  1  0
M  END
$$$$
