3UO5_0BX_A_501_
     RDKit          3D

 23 25  0  0  0  0  0  0  0  0999 V2000
   38.6282   25.3282   61.0763 C   0  0  0  0  0  0  0  0  0  0  0  0
   38.9332   23.9634   60.5845 C   0  0  0  0  0  0  0  0  0  0  0  0
   39.4157   25.8745   62.0704 C   0  0  0  0  0  0  0  0  0  0  0  0
   39.1307   27.1499   62.5292 C   0  0  0  0  0  0  0  0  0  0  0  0
   38.0644   27.8771   62.0066 C   0  0  0  0  0  0  0  0  0  0  0  0
   37.2731   27.3069   61.0207 C   0  0  0  0  0  0  0  0  0  0  0  0
   37.5622   26.0347   60.5513 C   0  0  0  0  0  0  0  0  0  0  0  0
   37.8276   29.1875   62.5518 N   0  0  0  0  0  0  0  0  0  0  0  0
   37.2374   30.3133   61.9028 C   0  0  0  0  0  0  0  0  0  0  0  0
   37.3929   31.5041   62.4785 N   0  0  0  0  0  0  0  0  0  0  0  0
   36.8724   32.6163   61.9326 C   0  0  0  0  0  0  0  0  0  0  0  0
   36.1577   32.5137   60.7482 C   0  0  0  0  0  0  0  0  0  0  0  0
   36.0027   31.2688   60.1718 C   0  0  0  0  0  0  0  0  0  0  0  0
   36.5491   30.2011   60.7630 N   0  0  0  0  0  0  0  0  0  0  0  0
   35.2652   31.1151   58.9613 N   0  0  0  0  0  0  0  0  0  0  0  0
   34.9060   29.7978   58.5279 C   0  0  0  0  0  0  0  0  0  0  0  0
   33.6075   29.3372   58.6802 C   0  0  0  0  0  0  0  0  0  0  0  0
   33.2808   28.0613   58.2457 C   0  0  0  0  0  0  0  0  0  0  0  0
   34.2396   27.2447   57.6635 C   0  0  0  0  0  0  0  0  0  0  0  0
   35.5301   27.7061   57.5091 C   0  0  0  0  0  0  0  0  0  0  0  0
   35.8628   28.9825   57.9417 C   0  0  0  0  0  0  0  0  0  0  0  0
   40.0818   23.4705   60.7739 O   0  0  0  0  0  0  0  0  0  0  0  0
   38.0324   23.3095   59.9985 O   0  0  0  0  0  0  0  0  0  0  0  0
  1  2  1  0
  1  3  2  0
  3  4  1  0
  4  5  2  0
  5  6  1  0
  6  7  2  0
  1  7  1  0
  5  8  1  0
  8  9  1  0
  9 10  2  0
 10 11  1  0
 11 12  2  0
 12 13  1  0
 13 14  2  0
  9 14  1  0
 13 15  1  0
 15 16  1  0
 16 17  2  0
 17 18  1  0
 18 19  2  0
 19 20  1  0
 20 21  2  0
 16 21  1  0
  2 22  1  0
  2 23  2  0
M  END
$$$$
