3EHY_TBL_A_1_
     RDKit          3D

 17 17  0  0  0  0  0  0  0  0999 V2000
    0.2049    4.0289   71.8921 O   0  0  0  0  0  0  0  0  0  0  0  0
    0.4386    4.9268   70.8054 S   0  0  0  0  0  0  0  0  0  0  0  0
   -0.7506    5.5205   70.2515 O   0  0  0  0  0  0  0  0  0  0  0  0
    1.2397    4.0747   69.6967 N   0  0  0  0  0  0  0  0  0  0  0  0
    1.5308    4.6828   68.3890 C   0  0  0  0  0  0  0  0  0  0  0  0
    1.4117    3.6280   67.2864 C   0  0  0  0  0  0  0  0  0  0  0  0
    2.9137    5.2801   68.3693 C   0  0  0  0  0  0  0  0  0  0  0  0
    3.1705    6.3128   67.7824 O   0  0  0  0  0  0  0  0  0  0  0  0
    3.8946    4.6582   69.0225 O   0  0  0  0  0  0  0  0  0  0  0  0
    1.2768    6.1756   71.4294 C   0  0  0  0  0  0  0  0  0  0  0  0
    2.2847    5.9176   72.3560 C   0  0  0  0  0  0  0  0  0  0  0  0
    3.0089    6.9731   72.9388 C   0  0  0  0  0  0  0  0  0  0  0  0
    2.6816    8.3073   72.6663 C   0  0  0  0  0  0  0  0  0  0  0  0
    1.6885    8.6023   71.7499 C   0  0  0  0  0  0  0  0  0  0  0  0
    0.9912    7.5311   71.1283 C   0  0  0  0  0  0  0  0  0  0  0  0
    3.4323    9.3007   73.2738 O   0  0  0  0  0  0  0  0  0  0  0  0
    2.8967   10.4331   73.9421 C   0  0  0  0  0  0  0  0  0  0  0  0
  1  2  2  0
  2  3  2  0
  2  4  1  0
  4  5  1  0
  5  6  1  0
  5  7  1  0
  7  8  2  0
  7  9  1  0
  2 10  1  0
 10 11  2  0
 11 12  1  0
 12 13  2  0
 13 14  1  0
 10 15  1  0
 14 15  2  0
 13 16  1  0
 16 17  1  0
M  END
$$$$
