2G71_FTS_A_3001_
     RDKit          3D

 22 23  0  0  0  0  0  0  0  0999 V2000
   28.0050   43.2620   16.7460 C   0  0  0  0  0  0  0  0  0  0  0  0
   28.5970   43.7970   17.8890 C   0  0  0  0  0  0  0  0  0  0  0  0
   28.8530   42.9050   19.1070 C   0  0  0  0  0  0  0  0  0  0  0  0
   29.7420   43.5700   20.0600 N   0  0  0  0  0  0  0  0  0  0  0  0
   29.2360   44.9090   20.4020 C   0  0  0  0  0  0  0  0  0  0  0  0
   29.8960   45.4340   21.6800 C   0  0  0  0  0  0  0  0  0  0  0  0
   29.3460   46.6000   22.0480 F   0  0  0  0  0  0  0  0  0  0  0  0
   29.5340   45.7790   19.1780 C   0  0  0  0  0  0  0  0  0  0  0  0
   28.9140   45.1530   17.9280 C   0  0  0  0  0  0  0  0  0  0  0  0
   28.6350   45.9520   16.8230 C   0  0  0  0  0  0  0  0  0  0  0  0
   28.0440   45.4240   15.6800 C   0  0  0  0  0  0  0  0  0  0  0  0
   27.7300   44.0670   15.6450 C   0  0  0  0  0  0  0  0  0  0  0  0
   26.9860   43.3480   14.2190 S   0  0  0  0  0  0  0  0  0  0  0  0
   25.6500   42.9830   14.6130 O   0  0  0  0  0  0  0  0  0  0  0  0
   27.8700   42.3030   13.7680 O   0  0  0  0  0  0  0  0  0  0  0  0
   26.8340   44.4240   13.0250 N   0  0  0  0  0  0  0  0  0  0  0  0
   27.9740   44.6230   12.1160 C   0  0  0  0  0  0  0  0  0  0  0  0
   27.7140   44.2790   10.6630 C   0  0  0  0  0  0  0  0  0  0  0  0
   27.0420   45.2940    9.7870 C   0  0  0  0  0  0  0  0  0  0  0  0
   27.0200   44.9920    8.4790 F   0  0  0  0  0  0  0  0  0  0  0  0
   27.6450   46.4890    9.8000 F   0  0  0  0  0  0  0  0  0  0  0  0
   25.7740   45.5770   10.1170 F   0  0  0  0  0  0  0  0  0  0  0  0
  1  2  2  0
  2  3  1  0
  3  4  1  0
  4  5  1  0
  5  6  1  0
  6  7  1  0
  5  8  1  0
  2  9  1  0
  8  9  1  0
  9 10  2  0
 10 11  1  0
  1 12  1  0
 11 12  2  0
 12 13  1  0
 13 14  2  0
 13 15  2  0
 13 16  1  0
 16 17  1  0
 17 18  1  0
 18 19  1  0
 19 20  1  0
 19 21  1  0
 19 22  1  0
M  END
$$$$
