1HNN_SKF_A_3001_
     RDKit          3D

 14 15  0  0  0  0  0  0  0  0999 V2000
   28.5098   46.0496   16.7101 C   0  0  0  0  0  0  0  0  0  0  0  0
   28.0571   45.5219   15.5081 C   0  0  0  0  0  0  0  0  0  0  0  0
   27.9919   44.1336   15.3448 C   0  0  0  0  0  0  0  0  0  0  0  0
   28.3781   43.2918   16.3801 C   0  0  0  0  0  0  0  0  0  0  0  0
   27.4263   43.4479   13.8210 S   0  0  0  0  0  0  0  0  0  0  0  0
   28.8308   43.8184   17.5751 C   0  0  0  0  0  0  0  0  0  0  0  0
   28.8970   45.2058   17.7444 C   0  0  0  0  0  0  0  0  0  0  0  0
   27.6339   44.3734   12.7283 O   0  0  0  0  0  0  0  0  0  0  0  0
   26.0350   43.0784   13.8624 O   0  0  0  0  0  0  0  0  0  0  0  0
   28.2807   42.1488   13.5609 N   0  0  0  0  0  0  0  0  0  0  0  0
   29.1706   42.8918   18.7150 C   0  0  0  0  0  0  0  0  0  0  0  0
   29.4078   44.9209   20.1325 C   0  0  0  0  0  0  0  0  0  0  0  0
   29.6682   45.7618   18.9017 C   0  0  0  0  0  0  0  0  0  0  0  0
   29.9073   43.5556   19.8159 N   0  0  0  0  0  0  0  0  0  0  0  0
  1  2  2  0
  2  3  1  0
  3  4  2  0
  3  5  1  0
  4  6  1  0
  1  7  1  0
  6  7  2  0
  5  8  2  0
  5  9  2  0
  5 10  1  0
  6 11  1  0
  7 13  1  0
 12 13  1  0
 11 14  1  0
 12 14  1  0
M  END
$$$$
