2PJC_343_A_401_
     RDKit          3D

 45 47  0  0  0  0  0  0  0  0999 V2000
   38.6540   18.7540   62.5460 C   0  0  0  0  0  0  0  0  0  0  0  0
   39.2400   19.1450   61.3150 C   0  0  0  0  0  0  0  0  0  0  0  0
   38.4780   19.8840   60.3730 C   0  0  0  0  0  0  0  0  0  0  0  0
   37.1320   20.2310   60.6670 C   0  0  0  0  0  0  0  0  0  0  0  0
   36.5450   19.8390   61.8990 C   0  0  0  0  0  0  0  0  0  0  0  0
   37.3040   19.0980   62.8380 C   0  0  0  0  0  0  0  0  0  0  0  0
   36.7170   18.6490   64.0210 C   0  0  0  0  0  0  0  0  0  0  0  0
   36.6480   17.2210   64.2190 O   0  0  0  0  0  0  0  0  0  0  0  0
   36.3140   16.7610   65.4760 C   0  0  0  0  0  0  0  0  0  0  0  0
   35.8750   17.5300   66.3410 O   0  0  0  0  0  0  0  0  0  0  0  0
   36.4250   15.4380   65.6820 N   0  0  0  0  0  0  0  0  0  0  0  0
   36.8610   14.4960   64.6090 C   0  0  0  0  0  0  0  0  0  0  0  0
   37.2080   13.1160   65.1980 C   0  0  0  0  0  0  0  0  0  0  0  0
   38.2660   13.1990   66.3110 C   0  0  0  0  0  0  0  0  0  0  0  0
   39.6440   13.2870   65.9880 C   0  0  0  0  0  0  0  0  0  0  0  0
   40.6120   13.3450   67.0260 C   0  0  0  0  0  0  0  0  0  0  0  0
   40.2000   13.3150   68.3870 C   0  0  0  0  0  0  0  0  0  0  0  0
   41.1260   13.3630   69.3840 O   0  0  0  0  0  0  0  0  0  0  0  0
   38.8220   13.2280   68.7090 C   0  0  0  0  0  0  0  0  0  0  0  0
   37.8570   13.1710   67.6720 C   0  0  0  0  0  0  0  0  0  0  0  0
   35.7070   14.3360   63.6040 C   0  0  0  0  0  0  0  0  0  0  0  0
   34.5440   14.2470   64.0040 O   0  0  0  0  0  0  0  0  0  0  0  0
   36.0590   14.3730   62.3130 N   0  0  0  0  0  0  0  0  0  0  0  0
   35.0540   14.2310   61.2460 C   0  0  0  0  0  0  0  0  0  0  0  0
   35.0520   15.4360   60.2750 C   0  0  0  0  0  0  0  0  0  0  0  0
   36.4460   15.7650   59.7360 C   0  0  0  0  0  0  0  0  0  0  0  0
   34.4410   16.6630   60.9650 C   0  0  0  0  0  0  0  0  0  0  0  0
   35.2150   12.6100   60.4240 P   0  0  0  0  0  0  0  0  0  0  0  0
   34.1780   12.5100   59.3670 O   0  0  0  0  0  0  0  0  0  0  0  0
   35.2020   11.5980   61.5000 O   0  0  0  0  0  0  0  0  0  0  0  0
   36.6570   12.5710   59.7280 O   0  0  0  0  0  0  0  0  0  0  0  0
   37.1060   11.2820   59.2760 C   0  0  0  0  0  0  0  0  0  0  0  0
   37.7510   10.4920   60.4550 C   0  0  0  0  0  0  0  0  0  0  0  0
   37.5080    9.2660   60.5130 O   0  0  0  0  0  0  0  0  0  0  0  0
   38.4380   11.1350   61.2760 O   0  0  0  0  0  0  0  0  0  0  0  0
   38.0760   11.3860   58.0600 C   0  0  0  0  0  0  0  0  0  0  0  0
   38.7480   10.2240   57.6390 C   0  0  0  0  0  0  0  0  0  0  0  0
   38.2960   12.6110   57.3670 C   0  0  0  0  0  0  0  0  0  0  0  0
   39.1980   12.6460   56.2620 C   0  0  0  0  0  0  0  0  0  0  0  0
   39.8770   11.4570   55.8510 C   0  0  0  0  0  0  0  0  0  0  0  0
   39.6450   10.2420   56.5470 C   0  0  0  0  0  0  0  0  0  0  0  0
   40.2290    9.0850   56.1750 N   0  0  0  0  0  0  0  0  0  0  0  0
   41.0720    8.4010   56.9830 C   0  0  0  0  0  0  0  0  0  0  0  0
   41.4540    8.8930   58.1670 N   0  0  0  0  0  0  0  0  0  0  0  0
   41.5820    7.2480   56.5740 N   0  0  0  0  0  0  0  0  0  0  0  0
  1  2  2  0
  2  3  1  0
  3  4  2  0
  4  5  1  0
  1  6  1  0
  5  6  2  0
  6  7  1  0
  7  8  1  0
  8  9  1  0
  9 10  2  0
  9 11  1  0
 11 12  1  0
 12 13  1  0
 13 14  1  0
 14 15  2  0
 15 16  1  0
 16 17  2  0
 17 18  1  0
 17 19  1  0
 14 20  1  0
 19 20  2  0
 12 21  1  0
 21 22  2  0
 21 23  1  0
 23 24  1  0
 24 25  1  0
 25 26  1  0
 25 27  1  0
 24 28  1  0
 28 29  2  0
 28 30  1  0
 28 31  1  0
 31 32  1  0
 32 33  1  0
 33 34  2  0
 33 35  1  0
 32 36  1  0
 36 37  2  0
 36 38  1  0
 38 39  2  0
 39 40  1  0
 37 41  1  0
 40 41  2  0
 41 42  1  0
 42 43  1  0
 43 44  2  0
 43 45  1  0
M  END
$$$$
