2PJ3_86A_B_501_
     RDKit          3D

 33 34  0  0  0  0  0  0  0  0999 V2000
   37.7721   13.1847   67.5248 C   0  0  0  0  0  0  0  0  0  0  0  0
   38.6755   13.2746   68.6137 C   0  0  0  0  0  0  0  0  0  0  0  0
   40.0709   13.3524   68.3729 C   0  0  0  0  0  0  0  0  0  0  0  0
   40.5633   13.3407   67.0419 C   0  0  0  0  0  0  0  0  0  0  0  0
   39.6607   13.2519   65.9489 C   0  0  0  0  0  0  0  0  0  0  0  0
   38.2623   13.1733   66.1905 C   0  0  0  0  0  0  0  0  0  0  0  0
   37.2830   13.0752   65.0117 C   0  0  0  0  0  0  0  0  0  0  0  0
   36.8511   14.4666   64.5309 C   0  0  0  0  0  0  0  0  0  0  0  0
   35.6786   14.3750   63.5524 C   0  0  0  0  0  0  0  0  0  0  0  0
   34.5160   14.3160   63.9674 O   0  0  0  0  0  0  0  0  0  0  0  0
   36.0203   14.3915   62.2570 N   0  0  0  0  0  0  0  0  0  0  0  0
   35.0131   14.3061   61.1801 C   0  0  0  0  0  0  0  0  0  0  0  0
   35.0715   15.5331   60.2357 C   0  0  0  0  0  0  0  0  0  0  0  0
   34.5330   16.7780   60.9564 C   0  0  0  0  0  0  0  0  0  0  0  0
   36.4762   15.8044   59.6816 C   0  0  0  0  0  0  0  0  0  0  0  0
   35.1575   12.6842   60.3274 P   0  0  0  0  0  0  0  0  0  0  0  0
   34.1856   12.6114   59.2180 O   0  0  0  0  0  0  0  0  0  0  0  0
   35.0902   11.6635   61.4031 O   0  0  0  0  0  0  0  0  0  0  0  0
   36.6297   12.6219   59.6867 O   0  0  0  0  0  0  0  0  0  0  0  0
   37.0633   11.3288   59.2267 C   0  0  0  0  0  0  0  0  0  0  0  0
   37.6876   10.5151   60.3932 C   0  0  0  0  0  0  0  0  0  0  0  0
   37.4819    9.2875   60.3884 O   0  0  0  0  0  0  0  0  0  0  0  0
   38.3310   11.1417   61.2587 O   0  0  0  0  0  0  0  0  0  0  0  0
   38.0410   11.4314   58.0338 C   0  0  0  0  0  0  0  0  0  0  0  0
   38.7138   10.2665   57.6134 C   0  0  0  0  0  0  0  0  0  0  0  0
   38.2624   12.6492   57.3416 C   0  0  0  0  0  0  0  0  0  0  0  0
   39.1609   12.6804   56.2362 C   0  0  0  0  0  0  0  0  0  0  0  0
   39.8417   11.4979   55.8268 C   0  0  0  0  0  0  0  0  0  0  0  0
   39.6155   10.2813   56.5236 C   0  0  0  0  0  0  0  0  0  0  0  0
   40.2186    9.1240   56.1615 N   0  0  0  0  0  0  0  0  0  0  0  0
   40.9914    8.4030   57.0199 C   0  0  0  0  0  0  0  0  0  0  0  0
   41.3388    8.8823   58.2249 N   0  0  0  0  0  0  0  0  0  0  0  0
   41.4570    7.2182   56.6461 N   0  0  0  0  0  0  0  0  0  0  0  0
  1  2  2  0
  2  3  1  0
  3  4  2  0
  4  5  1  0
  1  6  1  0
  5  6  2  0
  6  7  1  0
  7  8  1  0
  8  9  1  0
  9 10  2  0
  9 11  1  0
 11 12  1  0
 12 13  1  0
 13 14  1  0
 13 15  1  0
 12 16  1  0
 16 17  2  0
 16 18  1  0
 16 19  1  0
 19 20  1  0
 20 21  1  0
 21 22  2  0
 21 23  1  0
 20 24  1  0
 24 25  2  0
 24 26  1  0
 26 27  2  0
 27 28  1  0
 25 29  1  0
 28 29  2  0
 29 30  1  0
 30 31  1  0
 31 32  2  0
 31 33  1  0
M  END
$$$$
