2PIY_528_B_501_
     RDKit          3D

 33 34  0  0  0  0  0  0  0  0999 V2000
   15.6425   26.5755   97.3803 C   0  0  0  0  0  0  0  0  0  0  0  0
   15.0108   27.0375   98.5643 C   0  0  0  0  0  0  0  0  0  0  0  0
   15.2155   26.3583   99.7936 C   0  0  0  0  0  0  0  0  0  0  0  0
   16.0509   25.2149   99.8398 C   0  0  0  0  0  0  0  0  0  0  0  0
   16.6835   24.7499   98.6579 C   0  0  0  0  0  0  0  0  0  0  0  0
   16.4829   25.4292   97.4236 C   0  0  0  0  0  0  0  0  0  0  0  0
   17.1597   24.9185   96.1300 C   0  0  0  0  0  0  0  0  0  0  0  0
   18.4084   25.7429   95.7403 C   0  0  0  0  0  0  0  0  0  0  0  0
   19.5689   25.5039   96.7101 C   0  0  0  0  0  0  0  0  0  0  0  0
   20.9339   26.6835   96.4968 S   0  0  0  0  0  0  0  0  0  0  0  0
   21.4792   26.5634   95.1133 O   0  0  0  0  0  0  0  0  0  0  0  0
   20.4313   28.0807   96.7346 O   0  0  0  0  0  0  0  0  0  0  0  0
   22.0816   26.3494   97.6044 N   0  0  0  0  0  0  0  0  0  0  0  0
   23.4326   26.0331   97.2637 C   0  0  0  0  0  0  0  0  0  0  0  0
   24.4236   27.0198   97.9430 C   0  0  0  0  0  0  0  0  0  0  0  0
   24.2452   27.1031   99.4676 C   0  0  0  0  0  0  0  0  0  0  0  0
   24.2592   28.4248   97.3357 C   0  0  0  0  0  0  0  0  0  0  0  0
   23.7797   24.2221   97.4792 P   0  0  0  0  0  0  0  0  0  0  0  0
   25.2155   24.0060   97.2354 O   0  0  0  0  0  0  0  0  0  0  0  0
   22.8044   23.5236   96.6093 O   0  0  0  0  0  0  0  0  0  0  0  0
   23.4142   23.7885   99.2118 C   0  0  0  0  0  0  0  0  0  0  0  0
   23.3270   22.2421   99.3638 C   0  0  0  0  0  0  0  0  0  0  0  0
   22.0423   21.6674   98.7213 C   0  0  0  0  0  0  0  0  0  0  0  0
   22.1416   20.5441   98.1862 O   0  0  0  0  0  0  0  0  0  0  0  0
   20.9924   22.3539   98.7969 O   0  0  0  0  0  0  0  0  0  0  0  0
   23.3427   21.8110  100.8407 C   0  0  0  0  0  0  0  0  0  0  0  0
   24.2028   20.7605  101.2322 C   0  0  0  0  0  0  0  0  0  0  0  0
   22.4198   22.3523  101.7822 C   0  0  0  0  0  0  0  0  0  0  0  0
   22.3562   21.8310  103.0973 C   0  0  0  0  0  0  0  0  0  0  0  0
   23.2135   20.7735  103.4778 C   0  0  0  0  0  0  0  0  0  0  0  0
   24.1353   20.2383  102.5452 C   0  0  0  0  0  0  0  0  0  0  0  0
   25.0377   19.0729  102.9451 C   0  0  0  0  0  0  0  0  0  0  0  0
   24.3533   17.8049  102.6532 N   0  0  0  0  0  0  0  0  0  0  0  0
  1  2  2  0
  2  3  1  0
  3  4  2  0
  4  5  1  0
  1  6  1  0
  5  6  2  0
  6  7  1  0
  7  8  1  0
  8  9  1  0
  9 10  1  0
 10 11  2  0
 10 12  2  0
 10 13  1  0
 13 14  1  0
 14 15  1  0
 15 16  1  0
 15 17  1  0
 14 18  1  0
 18 19  2  0
 18 20  1  0
 18 21  1  0
 21 22  1  0
 22 23  1  0
 23 24  2  0
 23 25  1  0
 22 26  1  0
 26 27  2  0
 26 28  1  0
 28 29  2  0
 29 30  1  0
 27 31  1  0
 30 31  2  0
 31 32  1  0
 32 33  1  0
M  END
$$$$
