3VAP_0FY_A_1_
     RDKit          3D

 72 77  0  0  0  0  0  0  0  0999 V2000
    9.7650   24.4620    5.5840 C   0  0  0  0  0  0  0  0  0  0  0  0
    2.3940   35.8260    4.9610 C   0  0  0  0  0  0  0  0  0  0  0  0
    7.3380   29.1230    9.3820 C   0  0  0  0  0  0  0  0  0  0  0  0
    8.5590   29.9720    7.7370 C   0  0  0  0  0  0  0  0  0  0  0  0
    9.8050   23.1890    4.9920 C   0  0  0  0  0  0  0  0  0  0  0  0
   12.1970   23.1590    5.1710 C   0  0  0  0  0  0  0  0  0  0  0  0
    5.7560   32.0320    8.9780 C   0  0  0  0  0  0  0  0  0  0  0  0
    7.3680   30.1210    8.4410 C   0  0  0  0  0  0  0  0  0  0  0  0
   10.9960   25.0890    5.9840 C   0  0  0  0  0  0  0  0  0  0  0  0
   12.2440   24.3790    5.7520 C   0  0  0  0  0  0  0  0  0  0  0  0
    6.4080   31.1670    8.1410 C   0  0  0  0  0  0  0  0  0  0  0  0
    1.9280   36.1660    3.6520 C   0  0  0  0  0  0  0  0  0  0  0  0
    3.2030   34.7300    4.8330 C   0  0  0  0  0  0  0  0  0  0  0  0
    5.1680   32.5230    6.9140 C   0  0  0  0  0  0  0  0  0  0  0  0
    6.2650   30.8280    5.5900 C   0  0  0  0  0  0  0  0  0  0  0  0
    4.6740   33.0930    5.7140 C   0  0  0  0  0  0  0  0  0  0  0  0
    5.7200   31.3930    4.4940 C   0  0  0  0  0  0  0  0  0  0  0  0
    9.9730   27.1620    6.9330 C   0  0  0  0  0  0  0  0  0  0  0  0
    3.2330   39.6030    1.1670 C   0  0  0  0  0  0  0  0  0  0  0  0
    2.1350   39.9810    0.1350 C   0  0  0  0  0  0  0  0  0  0  0  0
    2.6170   39.0780    2.4840 C   0  0  0  0  0  0  0  0  0  0  0  0
    0.4640   38.6600    1.3870 C   0  0  0  0  0  0  0  0  0  0  0  0
    0.9720   38.9430   -0.0220 C   0  0  0  0  0  0  0  0  0  0  0  0
    6.0990   30.9290    3.1290 C   0  0  0  0  0  0  0  0  0  0  0  0
    1.1800   37.6040   -0.7900 C   0  0  0  0  0  0  0  0  0  0  0  0
    1.0780   37.3240    3.3970 C   0  0  0  0  0  0  0  0  0  0  0  0
   10.3670   28.3090    7.8390 C   0  0  0  0  0  0  0  0  0  0  0  0
    8.4290   28.3490    9.2640 N   0  0  0  0  0  0  0  0  0  0  0  0
    2.3520   35.4420    2.5990 N   0  0  0  0  0  0  0  0  0  0  0  0
    4.9700   32.5370    4.5400 N   0  0  0  0  0  0  0  0  0  0  0  0
    9.1310   28.9020    8.2810 N   0  0  0  0  0  0  0  0  0  0  0  0
    5.9480   31.4210    6.8410 N   0  0  0  0  0  0  0  0  0  0  0  0
   11.0000   22.6330    4.8150 N   0  0  0  0  0  0  0  0  0  0  0  0
    5.0830   32.8690    8.1780 N   0  0  0  0  0  0  0  0  0  0  0  0
   11.0540   26.3840    6.5700 N   0  0  0  0  0  0  0  0  0  0  0  0
    3.8110   34.1780    5.8820 N   0  0  0  0  0  0  0  0  0  0  0  0
    1.5670   38.0580    2.1950 N   0  0  0  0  0  0  0  0  0  0  0  0
    8.8160   26.9910    6.5910 O   0  0  0  0  0  0  0  0  0  0  0  0
   13.5110   24.8080    6.0590 F   0  0  0  0  0  0  0  0  0  0  0  0
    3.3980   34.2750    3.0950 S   0  0  0  0  0  0  0  0  0  0  0  0
    8.7860   24.9140    5.7080 H   0  0  0  0  0  0  0  0  0  0  0  0
    2.1100   36.2870    5.8950 H   0  0  0  0  0  0  0  0  0  0  0  0
    6.5910   28.9110   10.1340 H   0  0  0  0  0  0  0  0  0  0  0  0
    8.9960   30.4700    6.8830 H   0  0  0  0  0  0  0  0  0  0  0  0
    8.9380   22.6140    4.6670 H   0  0  0  0  0  0  0  0  0  0  0  0
   13.0800   22.5730    4.9820 H   0  0  0  0  0  0  0  0  0  0  0  0
    5.7610   32.2420   10.0300 H   0  0  0  0  0  0  0  0  0  0  0  0
    6.9970   30.0540    5.4940 H   0  0  0  0  0  0  0  0  0  0  0  0
    3.8910   38.8310    0.7340 H   0  0  0  0  0  0  0  0  0  0  0  0
    3.8770   40.4720    1.3860 H   0  0  0  0  0  0  0  0  0  0  0  0
    2.5840   40.2220   -0.8330 H   0  0  0  0  0  0  0  0  0  0  0  0
    1.6780   40.9110    0.5040 H   0  0  0  0  0  0  0  0  0  0  0  0
    3.3610   38.5370    3.0350 H   0  0  0  0  0  0  0  0  0  0  0  0
    2.1740   39.8560    3.1150 H   0  0  0  0  0  0  0  0  0  0  0  0
   -0.4120   37.9980    1.3410 H   0  0  0  0  0  0  0  0  0  0  0  0
    0.1900   39.5840    1.8980 H   0  0  0  0  0  0  0  0  0  0  0  0
    0.1550   39.4630   -0.5460 H   0  0  0  0  0  0  0  0  0  0  0  0
    5.2370   30.9190    2.4790 H   0  0  0  0  0  0  0  0  0  0  0  0
    6.8190   31.6310    2.7020 H   0  0  0  0  0  0  0  0  0  0  0  0
    6.5750   29.9410    3.1380 H   0  0  0  0  0  0  0  0  0  0  0  0
    1.2780   37.8130   -1.8570 H   0  0  0  0  0  0  0  0  0  0  0  0
    0.3340   36.9280   -0.6600 H   0  0  0  0  0  0  0  0  0  0  0  0
    2.0790   37.0470   -0.5110 H   0  0  0  0  0  0  0  0  0  0  0  0
    0.0610   36.9560    3.2590 H   0  0  0  0  0  0  0  0  0  0  0  0
    1.0820   38.0480    4.2220 H   0  0  0  0  0  0  0  0  0  0  0  0
   10.9680   29.0350    7.2790 H   0  0  0  0  0  0  0  0  0  0  0  0
   10.8990   27.9750    8.7210 H   0  0  0  0  0  0  0  0  0  0  0  0
   11.9800   26.7270    6.7670 H   0  0  0  0  0  0  0  0  0  0  0  0
    3.5830   34.5570    6.7870 H   0  0  0  0  0  0  0  0  0  0  0  0
   11.0120   21.7350    4.4760 H   0  0  0  0  0  0  0  0  0  0  0  0
    4.4930   33.5560    8.4420 H   0  0  0  0  0  0  0  0  0  0  0  0
    2.0510   37.3450    1.6570 H   0  0  0  0  0  0  0  0  0  0  0  0
  1  5  2  0
  4  8  2  0
  3  8  1  0
  1  9  1  0
  6 10  1  0
  9 10  2  0
  8 11  1  0
  7 11  2  0
  2 12  1  0
  2 13  2  0
 14 16  1  0
 15 17  2  0
 19 20  1  0
 19 21  1  0
 20 23  1  0
 22 23  1  0
 17 24  1  0
 23 25  1  0
 12 26  1  0
 18 27  1  0
  3 28  2  0
 12 29  2  0
 17 30  1  0
 16 30  2  0
  4 31  1  0
 27 31  1  0
 28 31  1  0
 15 32  1  0
 14 32  1  0
 11 32  1  0
  5 33  1  0
  6 33  2  0
 14 34  2  0
  7 34  1  0
  9 35  1  0
 18 35  1  0
 13 36  1  0
 16 36  1  0
 22 37  1  0
 21 37  1  0
 26 37  1  0
 18 38  2  0
 10 39  1  0
 29 40  1  0
 13 40  1  0
  1 41  1  0
  2 42  1  0
  3 43  1  0
  4 44  1  0
  5 45  1  0
  6 46  1  0
  7 47  1  0
 15 48  1  0
 19 49  1  0
 19 50  1  0
 20 51  1  0
 20 52  1  0
 21 53  1  0
 21 54  1  0
 22 55  1  0
 22 56  1  0
 23 57  1  0
 24 58  1  0
 24 59  1  0
 24 60  1  0
 25 61  1  0
 25 62  1  0
 25 63  1  0
 26 64  1  0
 26 65  1  0
 27 66  1  0
 27 67  1  0
 35 68  1  0
 36 69  1  0
 33 70  1  0
 34 71  1  0
 37 72  1  0
M  CHG  3  33   1  34   1  37   1
M  END
$$$$
