1ZZ3_3YP_C_1652_
     RDKit          3D

 11 11  0  0  0  0  0  0  0  0999 V2000
  -26.8469   15.0977  -17.7491 C   0  0  0  0  0  0  0  0  0  0  0  0
  -27.1050   15.9774  -16.5159 C   0  0  0  0  0  0  0  0  0  0  0  0
  -26.0454   15.5780  -15.4696 C   0  0  0  0  0  0  0  0  0  0  0  0
  -25.7003   14.1249  -15.8120 C   0  0  0  0  0  0  0  0  0  0  0  0
  -25.8140   14.0204  -17.3476 C   0  0  0  0  0  0  0  0  0  0  0  0
  -24.4477   14.3563  -17.9508 C   0  0  0  0  0  0  0  0  0  0  0  0
  -24.0790   13.4956  -19.1831 C   0  0  0  0  0  0  0  0  0  0  0  0
  -23.6677   12.1559  -18.6305 C   0  0  0  0  0  0  0  0  0  0  0  0
  -22.5592   11.7976  -18.3271 O   0  0  0  0  0  0  0  0  0  0  0  0
  -24.6436   11.5390  -18.4655 N   0  0  0  0  0  0  0  0  0  0  0  0
  -24.5348   10.3834  -17.8958 O   0  0  0  0  0  0  0  0  0  0  0  0
  1  2  1  0
  2  3  1  0
  3  4  1  0
  1  5  1  0
  4  5  1  0
  5  6  1  0
  6  7  1  0
  7  8  1  0
  8  9  2  0
  8 10  1  0
 10 11  1  0
M  END
$$$$
