4B74_1LH_A_1721_
     RDKit          3D

 57 58  0  0  0  0  0  0  0  0999 V2000
    0.6250   15.0930  -43.9980 C   0  0  0  0  0  0  0  0  0  0  0  0
    0.6720   13.9110  -43.0580 C   0  0  0  0  0  0  0  0  0  0  0  0
    0.5230   14.2910  -41.5940 C   0  0  0  0  0  0  0  0  0  0  0  0
    0.3180   13.0290  -40.7840 N   0  0  0  0  0  0  0  0  0  0  0  0
   -1.0690   12.4440  -40.6880 C   0  0  0  0  0  0  0  0  0  0  0  0
   -1.0120   11.0810  -40.0140 C   0  0  0  0  0  0  0  0  0  0  0  0
   -2.0150   13.4090  -39.9670 C   0  0  0  0  0  0  0  0  0  0  0  0
   -1.6630   13.6930  -38.5260 C   0  0  0  0  0  0  0  0  0  0  0  0
   -0.5270   14.0170  -38.1870 O   0  0  0  0  0  0  0  0  0  0  0  0
   -2.6690   13.5670  -37.6630 N   0  0  0  0  0  0  0  0  0  0  0  0
   -2.4760   13.7190  -36.2320 C   0  0  0  0  0  0  0  0  0  0  0  0
   -3.6190   14.4660  -35.5810 C   0  0  0  0  0  0  0  0  0  0  0  0
   -3.7090   15.8510  -36.1020 N   0  0  0  0  0  0  0  0  0  0  0  0
    1.7030   15.0960  -41.0670 C   0  0  0  0  0  0  0  0  0  0  0  0
    1.5490   16.4250  -40.6860 C   0  0  0  0  0  0  0  0  0  0  0  0
    2.6330   17.1410  -40.2090 C   0  0  0  0  0  0  0  0  0  0  0  0
    3.8810   16.5450  -40.1040 C   0  0  0  0  0  0  0  0  0  0  0  0
    5.1890   17.5050  -39.4980 Cl  0  0  0  0  0  0  0  0  0  0  0  0
    4.0830   15.2180  -40.4730 C   0  0  0  0  0  0  0  0  0  0  0  0
    5.3080   14.5580  -40.3940 O   0  0  0  0  0  0  0  0  0  0  0  0
    5.8700   14.2600  -39.1690 C   0  0  0  0  0  0  0  0  0  0  0  0
    5.2640   14.3870  -37.9300 C   0  0  0  0  0  0  0  0  0  0  0  0
    5.9630   14.0450  -36.7850 C   0  0  0  0  0  0  0  0  0  0  0  0
    7.2550   13.5800  -36.8780 C   0  0  0  0  0  0  0  0  0  0  0  0
    7.8580   13.4530  -38.1100 C   0  0  0  0  0  0  0  0  0  0  0  0
    7.1670   13.7920  -39.2580 C   0  0  0  0  0  0  0  0  0  0  0  0
    2.9870   14.5200  -40.9480 C   0  0  0  0  0  0  0  0  0  0  0  0
    3.1470   13.2370  -41.3120 F   0  0  0  0  0  0  0  0  0  0  0  0
   -0.2860   14.8420  -41.5040 H   0  0  0  0  0  0  0  0  0  0  0  0
    0.8660   12.3820  -41.1370 H   0  0  0  0  0  0  0  0  0  0  0  0
    0.6050   13.1980  -39.9320 H   0  0  0  0  0  0  0  0  0  0  0  0
   -1.3950   12.3160  -41.6100 H   0  0  0  0  0  0  0  0  0  0  0  0
   -2.8910   16.2640  -36.0480 H   0  0  0  0  0  0  0  0  0  0  0  0
   -3.9790   15.8440  -36.9790 H   0  0  0  0  0  0  0  0  0  0  0  0
   -4.3140   16.3350  -35.6130 H   0  0  0  0  0  0  0  0  0  0  0  0
    0.4610   14.7800  -44.9090 H   0  0  0  0  0  0  0  0  0  0  0  0
   -0.0940   15.6970  -43.7280 H   0  0  0  0  0  0  0  0  0  0  0  0
    1.4780   15.5690  -43.9670 H   0  0  0  0  0  0  0  0  0  0  0  0
   -0.0460   13.2900  -43.2960 H   0  0  0  0  0  0  0  0  0  0  0  0
    1.5240   13.4470  -43.1780 H   0  0  0  0  0  0  0  0  0  0  0  0
   -0.4750   11.1410  -39.2030 H   0  0  0  0  0  0  0  0  0  0  0  0
   -1.9170   10.7920  -39.7850 H   0  0  0  0  0  0  0  0  0  0  0  0
   -0.6110   10.4350  -40.6210 H   0  0  0  0  0  0  0  0  0  0  0  0
   -2.0270   14.2560  -40.4540 H   0  0  0  0  0  0  0  0  0  0  0  0
   -2.9190   13.0370  -39.9970 H   0  0  0  0  0  0  0  0  0  0  0  0
   -3.4710   13.3870  -37.9590 H   0  0  0  0  0  0  0  0  0  0  0  0
   -2.3960   12.8330  -35.8240 H   0  0  0  0  0  0  0  0  0  0  0  0
   -1.6470   14.2000  -36.0720 H   0  0  0  0  0  0  0  0  0  0  0  0
   -4.4620   14.0110  -35.7670 H   0  0  0  0  0  0  0  0  0  0  0  0
   -3.4920   14.4990  -34.6120 H   0  0  0  0  0  0  0  0  0  0  0  0
    0.7060   16.8380  -40.7530 H   0  0  0  0  0  0  0  0  0  0  0  0
    2.5230   18.0410  -39.9520 H   0  0  0  0  0  0  0  0  0  0  0  0
    4.3780   14.7070  -37.8660 H   0  0  0  0  0  0  0  0  0  0  0  0
    5.5520   14.1310  -35.9380 H   0  0  0  0  0  0  0  0  0  0  0  0
    7.7300   13.3470  -36.0950 H   0  0  0  0  0  0  0  0  0  0  0  0
    8.7450   13.1330  -38.1710 H   0  0  0  0  0  0  0  0  0  0  0  0
    7.5800   13.7050  -40.1000 H   0  0  0  0  0  0  0  0  0  0  0  0
  1  2  1  0
  2  3  1  0
  3  4  1  0
  4  5  1  0
  5  6  1  0
  5  7  1  0
  7  8  1  0
  8  9  2  0
  8 10  1  0
 10 11  1  0
 11 12  1  0
 12 13  1  0
  3 14  1  0
 14 15  2  0
 15 16  1  0
 16 17  2  0
 17 18  1  0
 17 19  1  0
 19 20  1  0
 20 21  1  0
 21 22  2  0
 22 23  1  0
 23 24  2  0
 24 25  1  0
 21 26  1  0
 25 26  2  0
 14 27  1  0
 19 27  2  0
 27 28  1  0
  3 29  1  0
  4 30  1  0
  4 31  1  0
  5 32  1  0
 13 33  1  0
 13 34  1  0
 13 35  1  0
  1 36  1  0
  1 37  1  0
  1 38  1  0
  2 39  1  0
  2 40  1  0
  6 41  1  0
  6 42  1  0
  6 43  1  0
  7 44  1  0
  7 45  1  0
 10 46  1  0
 11 47  1  0
 11 48  1  0
 12 49  1  0
 12 50  1  0
 15 51  1  0
 16 52  1  0
 22 53  1  0
 23 54  1  0
 24 55  1  0
 25 56  1  0
 26 57  1  0
M  CHG  2   4   1  13   1
M  END
$$$$
