3UO6_0BY_B_2_
     RDKit          3D

 24 26  0  0  0  0  0  0  0  0999 V2000
    5.7423   55.6862   31.8811 N   0  0  0  0  0  0  0  0  0  0  0  0
    5.9444   54.5129   33.9802 N   0  0  0  0  0  0  0  0  0  0  0  0
    7.8662   55.1239   32.7798 N   0  0  0  0  0  0  0  0  0  0  0  0
    6.0764   53.3221   36.0937 N   0  0  0  0  0  0  0  0  0  0  0  0
    2.1143   55.3042   32.6923 C   0  0  0  0  0  0  0  0  0  0  0  0
    1.5711   56.3203   31.9054 C   0  0  0  0  0  0  0  0  0  0  0  0
    2.4001   57.1095   31.1299 C   0  0  0  0  0  0  0  0  0  0  0  0
    3.7691   56.8790   31.1367 C   0  0  0  0  0  0  0  0  0  0  0  0
    4.3176   55.8739   31.9211 C   0  0  0  0  0  0  0  0  0  0  0  0
    3.4870   55.0793   32.7028 C   0  0  0  0  0  0  0  0  0  0  0  0
    0.1062   56.5896   31.9011 C   0  0  0  0  0  0  0  0  0  0  0  0
    6.5320   55.0900   32.9195 C   0  0  0  0  0  0  0  0  0  0  0  0
    6.6874   53.9430   34.9540 C   0  0  0  0  0  0  0  0  0  0  0  0
    8.0799   53.9808   34.8228 C   0  0  0  0  0  0  0  0  0  0  0  0
    8.6725   54.5847   33.7127 C   0  0  0  0  0  0  0  0  0  0  0  0
    4.7824   52.6993   36.0090 C   0  0  0  0  0  0  0  0  0  0  0  0
    3.6485   53.4924   36.1201 C   0  0  0  0  0  0  0  0  0  0  0  0
    2.3835   52.9235   36.0512 C   0  0  0  0  0  0  0  0  0  0  0  0
    2.2401   51.5528   35.8657 C   0  0  0  0  0  0  0  0  0  0  0  0
    3.3679   50.7542   35.7514 C   0  0  0  0  0  0  0  0  0  0  0  0
    4.6299   51.3220   35.8278 C   0  0  0  0  0  0  0  0  0  0  0  0
   -0.4996   56.7479   33.0020 O   0  0  0  0  0  0  0  0  0  0  0  0
   -0.5097   56.6933   30.8103 O   0  0  0  0  0  0  0  0  0  0  0  0
    5.9876   50.2690   35.6713 Cl  0  0  0  0  0  0  0  0  0  0  0  0
  5  6  2  0
  6  7  1  0
  7  8  2  0
  8  9  1  0
  1  9  1  0
  5 10  1  0
  9 10  2  0
  6 11  1  0
  2 12  2  0
  1 12  1  0
  3 12  1  0
  4 13  1  0
  2 13  1  0
 13 14  2  0
 14 15  1  0
  3 15  2  0
  4 16  1  0
 16 17  2  0
 17 18  1  0
 18 19  2  0
 19 20  1  0
 16 21  1  0
 20 21  2  0
 11 22  2  0
 11 23  1  0
 21 24  1  0
M  END
$$$$
