2ZWZ_ZWZ_B_902_
     RDKit          3D

 12 12  0  0  0  0  0  0  0  0999 V2000
   25.9524    3.0274   59.4363 O   0  0  0  0  0  0  0  0  0  0  0  0
   25.9967    4.4572   59.4561 C   0  0  0  0  0  0  0  0  0  0  0  0
   27.0607    4.9450   60.4414 C   0  0  0  0  0  0  0  0  0  0  0  0
   26.7376    4.4763   61.7511 O   0  0  0  0  0  0  0  0  0  0  0  0
   27.1022    6.4748   60.4557 C   0  0  0  0  0  0  0  0  0  0  0  0
   25.8941    6.9516   61.0596 O   0  0  0  0  0  0  0  0  0  0  0  0
   27.2982    7.0073   59.0307 C   0  0  0  0  0  0  0  0  0  0  0  0
   27.2504    8.5368   58.9683 C   0  0  0  0  0  0  0  0  0  0  0  0
   26.2653    6.4801   58.1172 N   0  0  0  0  0  0  0  0  0  0  0  0
   26.2518    5.0144   58.0531 C   0  0  0  0  0  0  0  0  0  0  0  0
   25.1190    4.5805   57.1213 C   0  0  0  0  0  0  0  0  0  0  0  0
   25.6494    4.2608   55.7911 N   0  0  0  0  0  0  0  0  0  0  0  0
  1  2  1  0
  2  3  1  0
  3  4  1  0
  3  5  1  0
  5  6  1  0
  5  7  1  0
  7  8  1  0
  7  9  1  0
  2 10  1  0
  9 10  1  0
 10 11  1  0
 11 12  1  0
M  END
$$$$
