2ZX9_ZX9_B_902_
     RDKit          3D

 26 28  0  0  0  0  0  0  0  0999 V2000
   26.5770    5.2420   52.4250 C   0  0  0  0  0  0  0  0  0  0  0  0
   26.5430    5.8140   51.1590 C   0  0  0  0  0  0  0  0  0  0  0  0
   26.3930    4.9810   50.0550 C   0  0  0  0  0  0  0  0  0  0  0  0
   26.2760    3.6030   50.2120 C   0  0  0  0  0  0  0  0  0  0  0  0
   26.3100    3.0300   51.4790 C   0  0  0  0  0  0  0  0  0  0  0  0
   26.4650    3.8620   52.5800 C   0  0  0  0  0  0  0  0  0  0  0  0
   26.6140    3.2910   53.9890 C   0  0  0  0  0  0  0  0  0  0  0  0
   26.7370    1.7670   54.1030 C   0  0  0  0  0  0  0  0  0  0  0  0
   28.1380    1.1800   53.9130 C   0  0  0  0  0  0  0  0  0  0  0  0
   27.8770   -0.2760   53.5110 C   0  0  0  0  0  0  0  0  0  0  0  0
   26.3650   -0.4580   53.6650 C   0  0  0  0  0  0  0  0  0  0  0  0
   25.8390    0.9070   53.2120 C   0  0  0  0  0  0  0  0  0  0  0  0
   25.5370    3.8220   54.9360 C   0  0  0  0  0  0  0  0  0  0  0  0
   24.3910    4.0860   54.5730 O   0  0  0  0  0  0  0  0  0  0  0  0
   26.0000    3.9790   56.1700 N   0  0  0  0  0  0  0  0  0  0  0  0
   25.1760    4.4470   57.2860 C   0  0  0  0  0  0  0  0  0  0  0  0
   26.2050    4.9330   58.2980 C   0  0  0  0  0  0  0  0  0  0  0  0
   26.2230    6.4030   58.2740 N   0  0  0  0  0  0  0  0  0  0  0  0
   27.3160    6.8770   59.1350 C   0  0  0  0  0  0  0  0  0  0  0  0
   27.4570    8.3910   58.9760 C   0  0  0  0  0  0  0  0  0  0  0  0
   27.0670    6.4330   60.5820 C   0  0  0  0  0  0  0  0  0  0  0  0
   25.7990    6.9010   61.0490 O   0  0  0  0  0  0  0  0  0  0  0  0
   27.0300    4.9040   60.6250 C   0  0  0  0  0  0  0  0  0  0  0  0
   26.8000    4.4550   61.9610 O   0  0  0  0  0  0  0  0  0  0  0  0
   25.9000    4.4300   59.7090 C   0  0  0  0  0  0  0  0  0  0  0  0
   25.8180    3.0030   59.7040 O   0  0  0  0  0  0  0  0  0  0  0  0
  1  2  2  0
  2  3  1  0
  3  4  2  0
  4  5  1  0
  1  6  1  0
  5  6  2  0
  6  7  1  0
  7  8  1  0
  8  9  1  0
  9 10  1  0
 10 11  1  0
  8 12  1  0
 11 12  1  0
  7 13  1  0
 13 14  2  0
 13 15  1  0
 15 16  1  0
 16 17  1  0
 17 18  1  0
 18 19  1  0
 19 20  1  0
 19 21  1  0
 21 22  1  0
 21 23  1  0
 23 24  1  0
 17 25  1  0
 23 25  1  0
 25 26  1  0
M  END
$$$$
