2WO9_068_A_1271_
     RDKit          3D

 23 24  0  0  0  0  0  0  0  0999 V2000
   46.6586   76.8996   26.4720 C   0  0  0  0  0  0  0  0  0  0  0  0
   46.8836   78.1617   27.3069 C   0  0  0  0  0  0  0  0  0  0  0  0
   47.4446   78.0920   28.3755 O   0  0  0  0  0  0  0  0  0  0  0  0
   46.3717   79.4343   26.7623 C   0  0  0  0  0  0  0  0  0  0  0  0
   46.6514   80.6547   27.3712 C   0  0  0  0  0  0  0  0  0  0  0  0
   46.1607   81.8429   26.8453 C   0  0  0  0  0  0  0  0  0  0  0  0
   45.6036   79.4460   25.6049 C   0  0  0  0  0  0  0  0  0  0  0  0
   45.1176   80.6557   25.0763 C   0  0  0  0  0  0  0  0  0  0  0  0
   45.3845   81.8784   25.6894 C   0  0  0  0  0  0  0  0  0  0  0  0
   44.8296   83.1749   25.1692 C   0  0  0  0  0  0  0  0  0  0  0  0
   44.4243   84.1616   26.0785 C   0  0  0  0  0  0  0  0  0  0  0  0
   43.8906   85.3682   25.6815 C   0  0  0  0  0  0  0  0  0  0  0  0
   44.5988   83.4386   23.8284 C   0  0  0  0  0  0  0  0  0  0  0  0
   44.0523   84.6342   23.3995 C   0  0  0  0  0  0  0  0  0  0  0  0
   43.6732   85.6208   24.3158 C   0  0  0  0  0  0  0  0  0  0  0  0
   43.0789   86.9215   23.8921 C   0  0  0  0  0  0  0  0  0  0  0  0
   43.3844   87.4584   22.4846 C   0  0  0  0  0  0  0  0  0  0  0  0
   43.0078   88.9414   22.3511 C   0  0  0  0  0  0  0  0  0  0  0  0
   41.5770   89.0067   22.4817 O   0  0  0  0  0  0  0  0  0  0  0  0
   43.5043   89.6195   21.0708 C   0  0  0  0  0  0  0  0  0  0  0  0
   44.9569   89.2033   20.7473 C   0  0  0  0  0  0  0  0  0  0  0  0
   45.8211   89.6546   21.4760 O   0  0  0  0  0  0  0  0  0  0  0  0
   45.1579   88.4606   19.7943 O   0  0  0  0  0  0  0  0  0  0  0  0
  1  2  1  0
  2  3  2  0
  2  4  1  0
  4  5  2  0
  5  6  1  0
  4  7  1  0
  7  8  2  0
  6  9  2  0
  8  9  1  0
  9 10  1  0
 10 11  2  0
 11 12  1  0
 10 13  1  0
 13 14  2  0
 12 15  2  0
 14 15  1  0
 15 16  1  0
 16 17  1  0
 17 18  1  0
 18 19  1  0
 18 20  1  0
 20 21  1  0
 21 22  1  0
 21 23  2  0
M  END
$$$$
