2WVZ_KIF_C_801_
     RDKit          3D

 16 17  0  0  0  0  0  0  0  0999 V2000
   12.5100  -11.6790   10.4820 C   0  0  0  0  0  0  0  0  0  0  0  0
   12.7460  -10.7220    9.4470 O   0  0  0  0  0  0  0  0  0  0  0  0
   12.2750  -13.0800    9.8560 C   0  0  0  0  0  0  0  0  0  0  0  0
   10.8800  -13.1930    9.5590 O   0  0  0  0  0  0  0  0  0  0  0  0
   12.7120  -14.2310   10.7860 C   0  0  0  0  0  0  0  0  0  0  0  0
   11.9750  -15.4300   10.5770 O   0  0  0  0  0  0  0  0  0  0  0  0
   12.5880  -13.7670   12.2350 C   0  0  0  0  0  0  0  0  0  0  0  0
   12.9450  -14.8450   13.1770 N   0  0  0  0  0  0  0  0  0  0  0  0
   14.1260  -14.5480   13.7550 C   0  0  0  0  0  0  0  0  0  0  0  0
   14.6890  -15.2580   14.6010 O   0  0  0  0  0  0  0  0  0  0  0  0
   14.6120  -13.3220   13.2760 C   0  0  0  0  0  0  0  0  0  0  0  0
   15.6630  -12.7670   13.6150 O   0  0  0  0  0  0  0  0  0  0  0  0
   13.6730  -12.7870   12.3800 N   0  0  0  0  0  0  0  0  0  0  0  0
   13.6700  -11.6000   11.5080 C   0  0  0  0  0  0  0  0  0  0  0  0
   13.6160  -10.3230   12.3400 C   0  0  0  0  0  0  0  0  0  0  0  0
   12.2420   -9.9810   12.5310 O   0  0  0  0  0  0  0  0  0  0  0  0
  1  2  1  0
  1  3  1  0
  3  4  1  0
  3  5  1  0
  5  6  1  0
  5  7  1  0
  7  8  1  0
  8  9  1  0
  9 10  2  0
  9 11  1  0
 11 12  2  0
  7 13  1  0
 11 13  1  0
  1 14  1  0
 13 14  1  0
 14 15  1  0
 15 16  1  0
M  END
$$$$
