2WW0_SWA_C_801_
     RDKit          3D

 12 13  0  0  0  0  0  0  0  0999 V2000
   12.5393  -11.4529   10.6623 C   0  0  0  0  0  0  0  0  0  0  0  0
   12.7769  -10.7347    9.4488 O   0  0  0  0  0  0  0  0  0  0  0  0
   13.4431  -12.6980   10.5955 C   0  0  0  0  0  0  0  0  0  0  0  0
   13.6918  -13.3787   11.9048 N   0  0  0  0  0  0  0  0  0  0  0  0
   13.2886  -12.6449   13.1284 C   0  0  0  0  0  0  0  0  0  0  0  0
   13.5356  -11.1289   13.0197 C   0  0  0  0  0  0  0  0  0  0  0  0
   12.7419  -10.5070   11.8695 C   0  0  0  0  0  0  0  0  0  0  0  0
   13.0969  -14.7261   11.8465 C   0  0  0  0  0  0  0  0  0  0  0  0
   12.8814  -15.0635   10.3649 C   0  0  0  0  0  0  0  0  0  0  0  0
   11.6064  -15.7386   10.1821 O   0  0  0  0  0  0  0  0  0  0  0  0
   12.7729  -13.7257    9.6695 C   0  0  0  0  0  0  0  0  0  0  0  0
   11.3723  -13.4488    9.5861 O   0  0  0  0  0  0  0  0  0  0  0  0
  1  2  1  0
  1  3  1  0
  3  4  1  0
  4  5  1  0
  5  6  1  0
  1  7  1  0
  6  7  1  0
  4  8  1  0
  8  9  1  0
  9 10  1  0
  3 11  1  0
  9 11  1  0
 11 12  1  0
M  END
$$$$
