3UO9_04A_C_1_
     RDKit          3D

 35 38  0  0  0  0  0  0  0  0999 V2000
    6.9850   -5.7580   45.9400 O   0  0  0  0  0  0  0  0  0  0  0  0
   -4.9610   -6.2090   44.7690 O   0  0  0  0  0  0  0  0  0  0  0  0
    9.0220   -1.3960   46.3760 C   0  0  0  0  0  0  0  0  0  0  0  0
   -9.7950   -5.4310   44.1140 C   0  0  0  0  0  0  0  0  0  0  0  0
    7.7730   -1.5590   46.9870 C   0  0  0  0  0  0  0  0  0  0  0  0
    9.9320   -2.4560   46.3250 C   0  0  0  0  0  0  0  0  0  0  0  0
   -9.2170   -4.1690   43.8820 C   0  0  0  0  0  0  0  0  0  0  0  0
   -9.0090   -6.5650   43.9020 C   0  0  0  0  0  0  0  0  0  0  0  0
    7.4210   -2.7840   47.5520 C   0  0  0  0  0  0  0  0  0  0  0  0
    9.5770   -3.6850   46.8810 C   0  0  0  0  0  0  0  0  0  0  0  0
   -7.8820   -4.0300   43.4410 C   0  0  0  0  0  0  0  0  0  0  0  0
   -7.6760   -6.4250   43.4550 C   0  0  0  0  0  0  0  0  0  0  0  0
    2.1050  -10.0600   44.9830 C   0  0  0  0  0  0  0  0  0  0  0  0
    0.1240   -9.2660   46.5720 C   0  0  0  0  0  0  0  0  0  0  0  0
    3.5880   -9.8850   44.9210 C   0  0  0  0  0  0  0  0  0  0  0  0
   -1.0160  -10.0530   45.9410 C   0  0  0  0  0  0  0  0  0  0  0  0
    7.9940   -5.0380   48.0230 C   0  0  0  0  0  0  0  0  0  0  0  0
   -5.7090   -5.0290   42.7840 C   0  0  0  0  0  0  0  0  0  0  0  0
    3.8320   -9.0900   47.4040 N   0  0  0  0  0  0  0  0  0  0  0  0
   -1.4980   -9.2760   43.5430 N   0  0  0  0  0  0  0  0  0  0  0  0
    4.4800   -8.1980   48.1700 N   0  0  0  0  0  0  0  0  0  0  0  0
   -2.2120   -8.3670   42.7640 N   0  0  0  0  0  0  0  0  0  0  0  0
    6.1360   -6.5290   47.9420 N   0  0  0  0  0  0  0  0  0  0  0  0
   -3.7690   -6.5820   42.8760 N   0  0  0  0  0  0  0  0  0  0  0  0
    1.2180   -8.5160   45.3310 S   0  0  0  0  0  0  0  0  0  0  0  0
    5.2320   -7.8690   45.7330 S   0  0  0  0  0  0  0  0  0  0  0  0
   -2.7660   -7.9210   45.2380 S   0  0  0  0  0  0  0  0  0  0  0  0
    7.0020   -5.8390   47.1760 C   0  0  0  0  0  0  0  0  0  0  0  0
   -4.7690   -5.9980   43.5700 C   0  0  0  0  0  0  0  0  0  0  0  0
    8.3230   -3.8330   47.4770 C   0  0  0  0  0  0  0  0  0  0  0  0
   -7.0760   -5.1660   43.2160 C   0  0  0  0  0  0  0  0  0  0  0  0
    4.1370   -9.0270   46.0640 C   0  0  0  0  0  0  0  0  0  0  0  0
   -1.6970   -9.1670   44.8810 C   0  0  0  0  0  0  0  0  0  0  0  0
    5.3040   -7.4250   47.4310 C   0  0  0  0  0  0  0  0  0  0  0  0
   -2.9820   -7.5140   43.4660 C   0  0  0  0  0  0  0  0  0  0  0  0
  3  5  2  0
  3  6  1  0
  4  7  2  0
  4  8  1  0
  5  9  1  0
  6 10  2  0
  7 11  1  0
  8 12  2  0
 13 15  1  0
 14 16  1  0
 19 21  1  0
 20 22  1  0
 13 25  1  0
 14 25  1  0
  1 28  2  0
 17 28  1  0
 23 28  1  0
  2 29  2  0
 18 29  1  0
 24 29  1  0
  9 30  2  0
 10 30  1  0
 17 30  1  0
 11 31  2  0
 12 31  1  0
 18 31  1  0
 15 32  1  0
 19 32  2  0
 26 32  1  0
 16 33  1  0
 20 33  2  0
 27 33  1  0
 21 34  2  0
 23 34  1  0
 26 34  1  0
 22 35  2  0
 24 35  1  0
 27 35  1  0
M  END
$$$$
