3VOZ_04A_A_601_
     RDKit          3D

 18 19  0  0  0  0  0  0  0  0999 V2000
    7.1761   -5.7057   46.0693 O   0  0  0  0  0  0  0  0  0  0  0  0
    8.3786   -0.5647   45.8551 C   0  0  0  0  0  0  0  0  0  0  0  0
    9.3203   -1.6372   45.6381 C   0  0  0  0  0  0  0  0  0  0  0  0
    7.2365   -0.7482   46.7408 C   0  0  0  0  0  0  0  0  0  0  0  0
    9.1567   -2.9019   46.2845 C   0  0  0  0  0  0  0  0  0  0  0  0
    7.0690   -2.0807   47.4199 C   0  0  0  0  0  0  0  0  0  0  0  0
    2.1871   -9.3451   45.0123 C   0  0  0  0  0  0  0  0  0  0  0  0
    3.3900  -10.1830   45.5210 C   0  0  0  0  0  0  0  0  0  0  0  0
    7.9372   -4.5366   47.8377 C   0  0  0  0  0  0  0  0  0  0  0  0
    4.9172   -8.4768   45.1876 N   0  0  0  0  0  0  0  0  0  0  0  0
    5.6586   -7.5373   45.6551 N   0  0  0  0  0  0  0  0  0  0  0  0
    6.2213   -6.4901   47.9806 N   0  0  0  0  0  0  0  0  0  0  0  0
    1.2227   -8.6516   45.4983 S   0  0  0  0  0  0  0  0  0  0  0  0
    4.5112   -8.5251   47.6497 S   0  0  0  0  0  0  0  0  0  0  0  0
    7.0663   -5.6310   47.2828 C   0  0  0  0  0  0  0  0  0  0  0  0
    8.0126   -3.1340   47.1936 C   0  0  0  0  0  0  0  0  0  0  0  0
    4.2134   -9.1245   46.1672 C   0  0  0  0  0  0  0  0  0  0  0  0
    5.6125   -7.3535   47.0461 C   0  0  0  0  0  0  0  0  0  0  0  0
  2  3  2  0
  2  4  1  0
  3  5  1  0
  4  6  2  0
  7  8  1  0
 10 11  1  0
  7 13  1  0
  1 15  2  0
  9 15  1  0
 12 15  1  0
  5 16  2  0
  6 16  1  0
  9 16  1  0
  8 17  1  0
 10 17  2  0
 14 17  1  0
 11 18  2  0
 12 18  1  0
 14 18  1  0
M  END
$$$$
