3ADU_MYI_A_2_
     RDKit          3D

 15 16  0  0  0  0  0  0  0  0999 V2000
   17.7459   61.7697   16.1421 C   0  0  0  0  0  0  0  0  0  0  0  0
   18.0903   65.1181   20.4306 O   0  0  0  0  0  0  0  0  0  0  0  0
   20.2093   65.6774   20.7166 O   0  0  0  0  0  0  0  0  0  0  0  0
   20.8871   63.4454   14.9709 C   0  0  0  0  0  0  0  0  0  0  0  0
   21.6974   64.6093   15.1643 C   0  0  0  0  0  0  0  0  0  0  0  0
   21.1283   67.2146   17.5518 C   0  0  0  0  0  0  0  0  0  0  0  0
   19.3419   64.1908   16.7865 C   0  0  0  0  0  0  0  0  0  0  0  0
   19.0105   66.7053   18.9167 C   0  0  0  0  0  0  0  0  0  0  0  0
   21.8535   66.6896   16.5685 N   0  0  0  0  0  0  0  0  0  0  0  0
   19.0115   62.0748   15.4913 O   0  0  0  0  0  0  0  0  0  0  0  0
   19.1120   65.7502   20.1256 C   0  0  0  0  0  0  0  0  0  0  0  0
   19.7105   63.2226   15.7701 C   0  0  0  0  0  0  0  0  0  0  0  0
   20.0823   66.4431   17.8430 C   0  0  0  0  0  0  0  0  0  0  0  0
   21.3151   65.5543   16.1737 C   0  0  0  0  0  0  0  0  0  0  0  0
   20.1494   65.3497   16.9789 C   0  0  0  0  0  0  0  0  0  0  0  0
  4  5  2  0
  6  9  1  0
  1 10  1  0
  2 11  2  0
  3 11  1  0
  8 11  1  0
  4 12  1  0
  7 12  2  0
 10 12  1  0
  6 13  2  0
  8 13  1  0
  5 14  1  0
  9 14  1  0
  7 15  1  0
 13 15  1  0
 14 15  2  0
M  END
$$$$
