3UVP_048_A_361_
     RDKit          3D

 29 32  0  0  0  0  0  0  0  0999 V2000
   -0.9780    4.3925  -22.6090 O   0  0  0  0  0  0  0  0  0  0  0  0
   -0.5814   -1.9173  -15.9894 O   0  0  0  0  0  0  0  0  0  0  0  0
   -5.0703   -1.7297  -15.2280 F   0  0  0  0  0  0  0  0  0  0  0  0
   -0.0245   -5.2102  -12.2450 C   0  0  0  0  0  0  0  0  0  0  0  0
    0.2185   -3.8386  -12.1737 C   0  0  0  0  0  0  0  0  0  0  0  0
   -0.6969   -5.7719  -13.3323 C   0  0  0  0  0  0  0  0  0  0  0  0
   -0.2266   -3.0031  -13.1998 C   0  0  0  0  0  0  0  0  0  0  0  0
   -1.1351   -4.9428  -14.3609 C   0  0  0  0  0  0  0  0  0  0  0  0
   -5.2420   -0.8630  -17.4437 C   0  0  0  0  0  0  0  0  0  0  0  0
   -4.6702   -0.7263  -18.7112 C   0  0  0  0  0  0  0  0  0  0  0  0
   -2.7622    1.2571  -20.4685 C   0  0  0  0  0  0  0  0  0  0  0  0
   -2.3929    2.3549  -21.2491 C   0  0  0  0  0  0  0  0  0  0  0  0
   -1.9024   -0.2502  -22.1382 C   0  0  0  0  0  0  0  0  0  0  0  0
   -2.7289   -1.9594  -17.9934 C   0  0  0  0  0  0  0  0  0  0  0  0
   -0.6578    2.5236  -25.4744 C   0  0  0  0  0  0  0  0  0  0  0  0
   -1.2730    1.1164  -25.4863 C   0  0  0  0  0  0  0  0  0  0  0  0
   -1.5660    3.5288  -24.7471 C   0  0  0  0  0  0  0  0  0  0  0  0
   -0.8269    0.3677  -24.2295 C   0  0  0  0  0  0  0  0  0  0  0  0
   -2.6750   -2.7785  -15.7417 N   0  0  0  0  0  0  0  0  0  0  0  0
   -2.8276   -1.1604  -20.2231 N   0  0  0  0  0  0  0  0  0  0  0  0
   -1.4127    3.4187  -23.2312 C   0  0  0  0  0  0  0  0  0  0  0  0
   -1.3805   -2.6625  -15.4280 C   0  0  0  0  0  0  0  0  0  0  0  0
   -4.5470   -1.5596  -16.4553 C   0  0  0  0  0  0  0  0  0  0  0  0
   -2.5190   -0.0546  -20.9130 C   0  0  0  0  0  0  0  0  0  0  0  0
   -3.3987   -1.2540  -18.9978 C   0  0  0  0  0  0  0  0  0  0  0  0
   -0.9082   -3.5623  -14.2900 C   0  0  0  0  0  0  0  0  0  0  0  0
   -1.5253    0.8371  -22.9217 C   0  0  0  0  0  0  0  0  0  0  0  0
   -3.2952   -2.0990  -16.7186 C   0  0  0  0  0  0  0  0  0  0  0  0
   -1.7686    2.1355  -22.4781 C   0  0  0  0  0  0  0  0  0  0  0  0
  4  5  2  0
  4  6  1  0
  5  7  1  0
  6  8  2  0
  9 10  2  0
 11 12  2  0
 15 16  1  0
 15 17  1  0
 16 18  1  0
  1 21  2  0
 17 21  1  0
  2 22  2  0
 19 22  1  0
  3 23  1  0
  9 23  1  0
 11 24  1  0
 13 24  2  0
 20 24  1  0
 10 25  1  0
 14 25  2  0
 20 25  1  0
  7 26  2  0
  8 26  1  0
 22 26  1  0
 13 27  1  0
 18 27  1  0
 14 28  1  0
 19 28  1  0
 23 28  2  0
 12 29  1  0
 21 29  1  0
 27 29  2  0
M  END
$$$$
