2FX6_270_A_246_
     RDKit          3D

 10 11  0  0  0  0  0  0  0  0999 V2000
   -2.3868    9.0288   19.2996 N   0  0  0  0  0  0  0  0  0  0  0  0
   -3.6181    9.3589   19.6059 C   0  0  0  0  0  0  0  0  0  0  0  0
   -2.2724    7.7662   19.5721 C   0  0  0  0  0  0  0  0  0  0  0  0
   -1.1722    6.9523   19.4250 C   0  0  0  0  0  0  0  0  0  0  0  0
   -1.3491    5.6127   19.7988 C   0  0  0  0  0  0  0  0  0  0  0  0
   -2.5915    5.1612   20.2977 C   0  0  0  0  0  0  0  0  0  0  0  0
   -3.7039    6.0351   20.4311 C   0  0  0  0  0  0  0  0  0  0  0  0
   -3.4810    7.3358   20.0499 C   0  0  0  0  0  0  0  0  0  0  0  0
   -4.3083    8.3398   20.0702 N   0  0  0  0  0  0  0  0  0  0  0  0
   -4.1111   10.5345   19.3660 N   0  0  0  0  0  0  0  0  0  0  0  0
  1  2  1  0
  1  3  2  0
  3  4  1  0
  4  5  2  0
  5  6  1  0
  6  7  2  0
  3  8  1  0
  7  8  1  0
  2  9  1  0
  8  9  2  0
  2 10  1  0
M  END
$$$$
