3FUH_5H1_A_710_
     RDKit          3D

 10 11  0  0  0  0  0  0  0  0999 V2000
  -27.1408   -0.4861   -0.4096 O   0  0  0  0  0  0  0  0  0  0  0  0
  -26.3239   -0.4052    0.6766 C   0  0  0  0  0  0  0  0  0  0  0  0
  -26.4193    0.7025    1.5282 C   0  0  0  0  0  0  0  0  0  0  0  0
  -25.5763    0.7900    2.6384 C   0  0  0  0  0  0  0  0  0  0  0  0
  -24.6620   -0.2330    2.8921 C   0  0  0  0  0  0  0  0  0  0  0  0
  -23.7296   -0.4555    3.8579 N   0  0  0  0  0  0  0  0  0  0  0  0
  -25.3936   -1.4264    0.9273 C   0  0  0  0  0  0  0  0  0  0  0  0
  -24.5624   -1.3268    2.0407 C   0  0  0  0  0  0  0  0  0  0  0  0
  -23.5636   -2.2472    2.4840 C   0  0  0  0  0  0  0  0  0  0  0  0
  -23.0728   -1.6351    3.6308 C   0  0  0  0  0  0  0  0  0  0  0  0
  1  2  1  0
  2  3  2  0
  3  4  1  0
  4  5  2  0
  5  6  1  0
  2  7  1  0
  5  8  1  0
  7  8  2  0
  8  9  1  0
  6 10  1  0
  9 10  2  0
M  END
$$$$
