3CFT_5NS_A_1_AB
     RDKit          3D

 15 16  0  0  0  0  0  0  0  0999 V2000
  -22.8800    1.8979  -27.1176 C   0  0  0  0  0  0  0  0  0  0  0  0
  -23.2994    2.2366  -25.8313 C   0  0  0  0  0  0  0  0  0  0  0  0
  -22.9619    1.4129  -24.7603 C   0  0  0  0  0  0  0  0  0  0  0  0
  -22.2009    0.2522  -24.9666 C   0  0  0  0  0  0  0  0  0  0  0  0
  -21.7746   -0.0912  -26.2681 C   0  0  0  0  0  0  0  0  0  0  0  0
  -22.1140    0.7459  -27.3517 C   0  0  0  0  0  0  0  0  0  0  0  0
  -20.6796   -2.0648  -25.3581 C   0  0  0  0  0  0  0  0  0  0  0  0
  -21.0124   -1.2567  -26.4445 C   0  0  0  0  0  0  0  0  0  0  0  0
  -21.1357    1.6873  -29.4719 O   0  0  0  0  0  0  0  0  0  0  0  0
  -21.6767    0.4416  -28.8802 S   0  0  0  0  0  0  0  0  0  0  0  0
  -22.8697   -0.0421  -29.6254 O   0  0  0  0  0  0  0  0  0  0  0  0
  -20.6315   -0.6106  -28.9782 O   0  0  0  0  0  0  0  0  0  0  0  0
  -21.1110   -1.7208  -24.0766 C   0  0  0  0  0  0  0  0  0  0  0  0
  -21.8701   -0.5661  -23.8735 C   0  0  0  0  0  0  0  0  0  0  0  0
  -22.2732   -0.2672  -22.6034 N   0  0  0  0  0  0  0  0  0  0  0  0
  1  2  2  0
  2  3  1  0
  3  4  2  0
  4  5  1  0
  1  6  1  0
  5  6  2  0
  5  8  1  0
  7  8  2  0
  6 10  1  0
  9 10  1  0
 10 11  2  0
 10 12  2  0
  7 13  1  0
  4 14  1  0
 13 14  2  0
 14 15  1  0
M  END
$$$$
