3CFN_2AN_B_1_
     RDKit          3D

 21 23  0  0  0  0  0  0  0  0999 V2000
  -24.1350    0.9980  -27.8310 C   0  0  0  0  0  0  0  0  0  0  0  0
  -23.9720    2.2210  -27.1730 C   0  0  0  0  0  0  0  0  0  0  0  0
  -24.8300    3.2860  -27.3990 C   0  0  0  0  0  0  0  0  0  0  0  0
  -25.8690    3.1330  -28.3070 C   0  0  0  0  0  0  0  0  0  0  0  0
  -26.0510    1.9260  -28.9730 C   0  0  0  0  0  0  0  0  0  0  0  0
  -27.1190    1.8540  -29.8640 C   0  0  0  0  0  0  0  0  0  0  0  0
  -27.3600    0.6850  -30.5680 C   0  0  0  0  0  0  0  0  0  0  0  0
  -26.5240   -0.4070  -30.3700 C   0  0  0  0  0  0  0  0  0  0  0  0
  -23.2600   -0.0040  -27.5690 N   0  0  0  0  0  0  0  0  0  0  0  0
  -24.5930   -1.7300  -29.3990 S   0  0  0  0  0  0  0  0  0  0  0  0
  -25.4420   -0.3630  -29.4850 C   0  0  0  0  0  0  0  0  0  0  0  0
  -25.1900    0.8300  -28.7580 C   0  0  0  0  0  0  0  0  0  0  0  0
  -22.4870   -0.1250  -26.4540 C   0  0  0  0  0  0  0  0  0  0  0  0
  -21.3620    0.6840  -26.2630 C   0  0  0  0  0  0  0  0  0  0  0  0
  -20.5700    0.5330  -25.1220 C   0  0  0  0  0  0  0  0  0  0  0  0
  -20.8900   -0.4350  -24.1700 C   0  0  0  0  0  0  0  0  0  0  0  0
  -22.0080   -1.2490  -24.3600 C   0  0  0  0  0  0  0  0  0  0  0  0
  -22.7990   -1.0950  -25.5000 C   0  0  0  0  0  0  0  0  0  0  0  0
  -24.8420   -2.5100  -30.6280 O   0  0  0  0  0  0  0  0  0  0  0  0
  -25.0310   -2.5080  -28.2230 O   0  0  0  0  0  0  0  0  0  0  0  0
  -23.1410   -1.4840  -29.3080 O   0  0  0  0  0  0  0  0  0  0  0  0
  1  2  2  0
  2  3  1  0
  3  4  2  0
  4  5  1  0
  5  6  1  0
  6  7  2  0
  7  8  1  0
  1  9  1  0
  8 11  2  0
 10 11  1  0
  1 12  1  0
  5 12  2  0
 11 12  1  0
  9 13  1  0
 13 14  2  0
 14 15  1  0
 15 16  2  0
 16 17  1  0
 13 18  1  0
 17 18  2  0
 10 19  2  0
 10 20  2  0
 10 21  1  0
M  END
$$$$
