3O1G_O75_A_218_
     RDKit          3D

 36 38  0  0  0  0  0  0  0  0999 V2000
   13.8270   -3.0190    6.8110 C   0  0  0  0  0  0  0  0  0  0  0  0
   15.0070   -3.0930    6.1640 N   0  0  0  0  0  0  0  0  0  0  0  0
   16.0020   -2.2520    6.4700 C   0  0  0  0  0  0  0  0  0  0  0  0
   15.8670   -1.2810    7.4130 N   0  0  0  0  0  0  0  0  0  0  0  0
   14.7120   -1.1740    8.1130 C   0  0  0  0  0  0  0  0  0  0  0  0
   13.6610   -2.0530    7.8270 C   0  0  0  0  0  0  0  0  0  0  0  0
   17.2430   -2.3000    5.6910 C   0  0  0  0  0  0  0  0  0  0  0  0
   17.9940   -1.2960    5.7920 N   0  0  0  0  0  0  0  0  0  0  0  0
   14.6150   -0.0910    9.1820 C   0  0  0  0  0  0  0  0  0  0  0  0
   14.9510    1.2670    8.6010 C   0  0  0  0  0  0  0  0  0  0  0  0
   13.9790    1.6250    7.5000 C   0  0  0  0  0  0  0  0  0  0  0  0
   12.7880   -4.0310    6.4500 C   0  0  0  0  0  0  0  0  0  0  0  0
   11.4130   -3.7990    6.5580 C   0  0  0  0  0  0  0  0  0  0  0  0
   10.5060   -4.7910    6.1980 C   0  0  0  0  0  0  0  0  0  0  0  0
   10.9630   -6.0320    5.7740 C   0  0  0  0  0  0  0  0  0  0  0  0
   12.3320   -6.2700    5.6590 C   0  0  0  0  0  0  0  0  0  0  0  0
   13.2370   -5.2740    6.0010 C   0  0  0  0  0  0  0  0  0  0  0  0
   12.8600   -7.6050    5.2200 C   0  0  0  0  0  0  0  0  0  0  0  0
   13.6980   -7.4650    4.2430 F   0  0  0  0  0  0  0  0  0  0  0  0
   11.9090   -8.4220    4.8840 F   0  0  0  0  0  0  0  0  0  0  0  0
   13.4780   -8.1770    6.2270 F   0  0  0  0  0  0  0  0  0  0  0  0
    9.0190   -4.6080    6.3410 C   0  0  0  0  0  0  0  0  0  0  0  0
    8.6450   -4.5500    7.4820 O   0  0  0  0  0  0  0  0  0  0  0  0
    8.1360   -4.6090    5.3440 N   0  0  0  0  0  0  0  0  0  0  0  0
    8.4980   -4.7110    3.9360 C   0  0  0  0  0  0  0  0  0  0  0  0
    8.0920   -3.4490    3.2170 C   0  0  0  0  0  0  0  0  0  0  0  0
    8.3710   -2.2120    3.7880 C   0  0  0  0  0  0  0  0  0  0  0  0
    7.9760   -1.0510    3.1310 C   0  0  0  0  0  0  0  0  0  0  0  0
    7.3230   -1.1440    1.9080 C   0  0  0  0  0  0  0  0  0  0  0  0
    7.0540   -2.3770    1.3390 C   0  0  0  0  0  0  0  0  0  0  0  0
    7.4390   -3.5420    1.9990 C   0  0  0  0  0  0  0  0  0  0  0  0
    6.6820   -4.4580    5.6140 C   0  0  0  0  0  0  0  0  0  0  0  0
    6.2240   -5.6580    6.4600 C   0  0  0  0  0  0  0  0  0  0  0  0
    4.7640   -5.8090    6.4570 N   0  0  0  0  0  0  0  0  0  0  0  0
    4.2130   -6.9630    7.1630 C   0  0  0  0  0  0  0  0  0  0  0  0
    3.8710   -4.8560    5.7920 C   0  0  0  0  0  0  0  0  0  0  0  0
  1  2  2  0
  2  3  1  0
  3  4  2  0
  4  5  1  0
  1  6  1  0
  5  6  2  0
  3  7  1  0
  7  8  3  0
  5  9  1  0
  9 10  1  0
 10 11  1  0
  1 12  1  0
 12 13  2  0
 13 14  1  0
 14 15  2  0
 15 16  1  0
 16 17  2  0
 12 17  1  0
 16 18  1  0
 18 19  1  0
 18 20  1  0
 18 21  1  0
 14 22  1  0
 22 23  2  0
 22 24  1  0
 24 25  1  0
 25 26  1  0
 26 27  2  0
 27 28  1  0
 28 29  2  0
 29 30  1  0
 30 31  2  0
 26 31  1  0
 24 32  1  0
 32 33  1  0
 33 34  1  0
 34 35  1  0
 34 36  1  0
M  END
$$$$
