3O0U_O47_A_216_
     RDKit          3D

 26 27  0  0  0  0  0  0  0  0999 V2000
   12.0625   -6.3230    5.2551 C   0  0  0  0  0  0  0  0  0  0  0  0
   10.7003   -6.1137    5.4220 C   0  0  0  0  0  0  0  0  0  0  0  0
   10.2444   -4.9090    5.9117 C   0  0  0  0  0  0  0  0  0  0  0  0
   11.1175   -3.9006    6.2660 C   0  0  0  0  0  0  0  0  0  0  0  0
   12.4857   -4.0799    6.1036 C   0  0  0  0  0  0  0  0  0  0  0  0
   12.9531   -5.3048    5.5931 C   0  0  0  0  0  0  0  0  0  0  0  0
   12.4750   -7.6560    4.6827 C   0  0  0  0  0  0  0  0  0  0  0  0
   11.9171   -7.7490    3.5048 F   0  0  0  0  0  0  0  0  0  0  0  0
   12.0119   -8.6482    5.4115 F   0  0  0  0  0  0  0  0  0  0  0  0
   13.7729   -7.8045    4.5450 F   0  0  0  0  0  0  0  0  0  0  0  0
   14.6934   -3.0731    5.9815 N   0  0  0  0  0  0  0  0  0  0  0  0
   13.4371   -2.9888    6.4664 C   0  0  0  0  0  0  0  0  0  0  0  0
   13.1012   -1.8944    7.2755 C   0  0  0  0  0  0  0  0  0  0  0  0
   14.0538   -0.9295    7.5769 C   0  0  0  0  0  0  0  0  0  0  0  0
   15.2814   -1.0609    7.0828 N   0  0  0  0  0  0  0  0  0  0  0  0
   15.6010   -2.1156    6.3041 C   0  0  0  0  0  0  0  0  0  0  0  0
   13.7786    0.2868    8.4412 C   0  0  0  0  0  0  0  0  0  0  0  0
   14.4483    0.1055    9.8115 C   0  0  0  0  0  0  0  0  0  0  0  0
   14.2854    1.3457   10.6801 C   0  0  0  0  0  0  0  0  0  0  0  0
    8.7914   -4.6869    6.0957 C   0  0  0  0  0  0  0  0  0  0  0  0
    8.1240   -4.0852    5.1206 N   0  0  0  0  0  0  0  0  0  0  0  0
    8.2829   -5.0551    7.1447 O   0  0  0  0  0  0  0  0  0  0  0  0
    6.6993   -3.8349    5.2420 C   0  0  0  0  0  0  0  0  0  0  0  0
    8.7801   -3.6576    3.8926 C   0  0  0  0  0  0  0  0  0  0  0  0
   16.9759   -2.2389    5.7982 C   0  0  0  0  0  0  0  0  0  0  0  0
   17.8784   -1.4383    6.0921 N   0  0  0  0  0  0  0  0  0  0  0  0
  1  2  2  0
  2  3  1  0
  3  4  2  0
  4  5  1  0
  1  6  1  0
  5  6  2  0
  1  7  1  0
  7  8  1  0
  7  9  1  0
  7 10  1  0
  5 12  1  0
 11 12  2  0
 12 13  1  0
 13 14  2  0
 14 15  1  0
 11 16  1  0
 15 16  2  0
 14 17  1  0
 17 18  1  0
 18 19  1  0
  3 20  1  0
 20 21  1  0
 20 22  2  0
 21 23  1  0
 21 24  1  0
 16 25  1  0
 25 26  2  0
M  END
$$$$
