3QCH_NX2_A_2001_
     RDKit          3D

 22 23  0  0  0  0  0  0  0  0999 V2000
   20.0215   30.0473   62.3062 C   0  0  0  0  0  0  0  0  0  0  0  0
   19.0698   29.4239   63.0122 C   0  0  0  0  0  0  0  0  0  0  0  0
   19.4452   29.7371   64.3870 C   0  0  0  0  0  0  0  0  0  0  0  0
   20.9784   30.6482   64.3775 S   0  0  0  0  0  0  0  0  0  0  0  0
   21.0970   30.7442   62.6612 C   0  0  0  0  0  0  0  0  0  0  0  0
   19.7145   29.9427   60.5087 S   0  0  0  0  0  0  0  0  0  0  0  0
   18.1770   29.0295   60.5372 C   0  0  0  0  0  0  0  0  0  0  0  0
   17.7401   28.6055   59.1753 C   0  0  0  0  0  0  0  0  0  0  0  0
   17.9815   27.2324   58.8169 C   0  0  0  0  0  0  0  0  0  0  0  0
   16.6360   29.2012   57.0273 C   0  0  0  0  0  0  0  0  0  0  0  0
   17.0886   29.5742   58.3272 C   0  0  0  0  0  0  0  0  0  0  0  0
   17.5128   26.8594   57.5218 C   0  0  0  0  0  0  0  0  0  0  0  0
   16.8494   27.8312   56.6735 C   0  0  0  0  0  0  0  0  0  0  0  0
   16.2530   27.2850   55.1633 Cl  0  0  0  0  0  0  0  0  0  0  0  0
   17.7557   25.2408   56.9330 Cl  0  0  0  0  0  0  0  0  0  0  0  0
   22.1447   31.4483   61.8956 C   0  0  0  0  0  0  0  0  0  0  0  0
   23.0480   32.1751   62.5753 N   0  0  0  0  0  0  0  0  0  0  0  0
   22.1569   31.3546   60.6775 O   0  0  0  0  0  0  0  0  0  0  0  0
   24.3815   32.8513   61.8216 S   0  0  0  0  0  0  0  0  0  0  0  0
   25.6416   31.5868   61.5922 C   0  0  0  0  0  0  0  0  0  0  0  0
   23.9868   33.3321   60.5070 O   0  0  0  0  0  0  0  0  0  0  0  0
   24.9328   33.8058   62.7629 O   0  0  0  0  0  0  0  0  0  0  0  0
  1  2  1  0
  2  3  2  0
  3  4  1  0
  1  5  2  0
  4  5  1  0
  1  6  1  0
  6  7  1  0
  7  8  1  0
  8  9  2  0
  8 11  1  0
 10 11  2  0
  9 12  1  0
 10 13  1  0
 12 13  2  0
 13 14  1  0
 12 15  1  0
  5 16  1  0
 16 17  1  0
 16 18  2  0
 17 19  1  0
 19 20  1  0
 19 21  2  0
 19 22  2  0
M  END
$$$$
