4B71_DJL_B_1721_
     RDKit          3D

 35 36  0  0  0  0  0  0  0  0999 V2000
    6.1191   14.0916  -36.7791 C   0  0  0  0  0  0  0  0  0  0  0  0
    7.4139   13.6216  -36.8920 C   0  0  0  0  0  0  0  0  0  0  0  0
    7.9933   13.4768  -38.1361 C   0  0  0  0  0  0  0  0  0  0  0  0
    7.2778   13.8009  -39.2734 C   0  0  0  0  0  0  0  0  0  0  0  0
    5.9744   14.2735  -39.1647 C   0  0  0  0  0  0  0  0  0  0  0  0
    5.3957   14.4180  -37.9146 C   0  0  0  0  0  0  0  0  0  0  0  0
    5.3817   14.5578  -40.3926 O   0  0  0  0  0  0  0  0  0  0  0  0
    4.1088   15.1080  -40.4824 C   0  0  0  0  0  0  0  0  0  0  0  0
    3.8098   16.4314  -40.1424 C   0  0  0  0  0  0  0  0  0  0  0  0
    2.5236   16.9204  -40.2540 C   0  0  0  0  0  0  0  0  0  0  0  0
    1.4995   16.1013  -40.7079 C   0  0  0  0  0  0  0  0  0  0  0  0
    1.7522   14.7764  -41.0582 C   0  0  0  0  0  0  0  0  0  0  0  0
    3.0777   14.3029  -40.9340 C   0  0  0  0  0  0  0  0  0  0  0  0
    5.0507   17.4995  -39.5692 Cl  0  0  0  0  0  0  0  0  0  0  0  0
    0.6590   12.5380  -40.9360 N   0  0  0  0  0  0  0  0  0  0  0  0
    0.4416   15.0010  -43.8112 C   0  0  0  0  0  0  0  0  0  0  0  0
    0.5764   13.7222  -43.0701 C   0  0  0  0  0  0  0  0  0  0  0  0
    3.3619   13.0311  -41.2608 F   0  0  0  0  0  0  0  0  0  0  0  0
    0.6133   13.8950  -41.5547 C   0  0  0  0  0  0  0  0  0  0  0  0
   -0.2365   14.3091  -41.2730 H   0  0  0  0  0  0  0  0  0  0  0  0
   -0.1369   12.1015  -41.0739 H   0  0  0  0  0  0  0  0  0  0  0  0
    1.3363   12.0407  -41.3102 H   0  0  0  0  0  0  0  0  0  0  0  0
    0.8061   12.6065  -40.0312 H   0  0  0  0  0  0  0  0  0  0  0  0
    1.3159   15.4300  -43.8850 H   0  0  0  0  0  0  0  0  0  0  0  0
    0.0908   14.8254  -44.7066 H   0  0  0  0  0  0  0  0  0  0  0  0
   -0.1710   15.5937  -43.3337 H   0  0  0  0  0  0  0  0  0  0  0  0
   -0.1762   13.1412  -43.3020 H   0  0  0  0  0  0  0  0  0  0  0  0
    0.6222   16.4445  -40.7813 H   0  0  0  0  0  0  0  0  0  0  0  0
    2.3415   17.8134  -40.0211 H   0  0  0  0  0  0  0  0  0  0  0  0
    7.6714   13.7023  -40.1185 H   0  0  0  0  0  0  0  0  0  0  0  0
    8.8784   13.1553  -38.2102 H   0  0  0  0  0  0  0  0  0  0  0  0
    7.9032   13.3997  -36.1150 H   0  0  0  0  0  0  0  0  0  0  0  0
    5.7257   14.1890  -35.9268 H   0  0  0  0  0  0  0  0  0  0  0  0
    4.5102   14.7388  -37.8364 H   0  0  0  0  0  0  0  0  0  0  0  0
    1.4004   13.2768  -43.3557 H   0  0  0  0  0  0  0  0  0  0  0  0
  1  2  2  0
  2  3  1  0
  3  4  2  0
  4  5  1  0
  1  6  1  0
  5  6  2  0
  5  7  1  0
  7  8  1  0
  8  9  2  0
  9 10  1  0
 10 11  2  0
 11 12  1  0
  8 13  1  0
 12 13  2  0
  9 14  1  0
 16 17  1  0
 13 18  1  0
 12 19  1  0
 15 19  1  0
 17 19  1  0
 19 20  1  0
 15 21  1  0
 15 22  1  0
 15 23  1  0
 16 24  1  0
 16 25  1  0
 16 26  1  0
 17 27  1  0
 11 28  1  0
 10 29  1  0
  4 30  1  0
  3 31  1  0
  2 32  1  0
  1 33  1  0
  6 34  1  0
 17 35  1  0
M  CHG  1  15   1
M  END
$$$$
