3RLP_3RP_A_901_
     RDKit          3D

 18 19  0  0  0  0  0  0  0  0999 V2000
   -1.9570   10.4908   25.9654 N   0  0  0  0  0  0  0  0  0  0  0  0
   -2.7635   11.4066   23.9288 N   0  0  0  0  0  0  0  0  0  0  0  0
   -0.9009   10.0945   26.7381 C   0  0  0  0  0  0  0  0  0  0  0  0
   -1.1987    9.5389   28.1038 C   0  0  0  0  0  0  0  0  0  0  0  0
    1.9847   10.8724   24.5163 C   0  0  0  0  0  0  0  0  0  0  0  0
    2.5760   12.1602   24.2899 C   0  0  0  0  0  0  0  0  0  0  0  0
    3.9161   12.2626   23.8257 C   0  0  0  0  0  0  0  0  0  0  0  0
    4.1242    9.7868   23.7677 C   0  0  0  0  0  0  0  0  0  0  0  0
    2.7741    9.7031   24.2444 C   0  0  0  0  0  0  0  0  0  0  0  0
    0.4141   10.1897   26.3122 C   0  0  0  0  0  0  0  0  0  0  0  0
    4.6845   11.0892   23.5703 C   0  0  0  0  0  0  0  0  0  0  0  0
    0.6148   10.7204   25.0272 C   0  0  0  0  0  0  0  0  0  0  0  0
   -1.6922   11.0018   24.7166 C   0  0  0  0  0  0  0  0  0  0  0  0
    4.4592    7.3645   23.6508 C   0  0  0  0  0  0  0  0  0  0  0  0
   -0.4184   11.1291   24.2213 N   0  0  0  0  0  0  0  0  0  0  0  0
    4.9497    8.7026   23.4801 O   0  0  0  0  0  0  0  0  0  0  0  0
    1.6971   13.6446   24.5762 Cl  0  0  0  0  0  0  0  0  0  0  0  0
    6.3161   11.2992   23.0184 Cl  0  0  0  0  0  0  0  0  0  0  0  0
  1  3  2  0
  3  4  1  0
  5  6  2  0
  6  7  1  0
  5  9  1  0
  8  9  2  0
  3 10  1  0
  7 11  2  0
  8 11  1  0
  5 12  1  0
 10 12  2  0
  1 13  1  0
  2 13  1  0
 12 15  1  0
 13 15  2  0
  8 16  1  0
 14 16  1  0
  6 17  1  0
 11 18  1  0
M  END
$$$$
