3UQG_B5A_B_1_
     RDKit          3D

 17 19  0  0  0  0  0  0  0  0999 V2000
   22.4392  -12.6147   12.4351 C   0  0  0  0  0  0  0  0  0  0  0  0
   22.0868  -12.7622   13.9228 C   0  0  0  0  0  0  0  0  0  0  0  0
   20.6266  -12.8539   14.0788 N   0  0  0  0  0  0  0  0  0  0  0  0
   20.0137  -11.5843   13.6461 C   0  0  0  0  0  0  0  0  0  0  0  0
   20.2323  -11.3808   12.1390 C   0  0  0  0  0  0  0  0  0  0  0  0
   21.7349  -11.4070   11.7781 C   0  0  0  0  0  0  0  0  0  0  0  0
   21.9139  -11.4612   10.2480 C   0  0  0  0  0  0  0  0  0  0  0  0
   21.9541  -10.1171    9.6389 N   0  0  0  0  0  0  0  0  0  0  0  0
   20.9665   -9.5126    9.2018 N   0  0  0  0  0  0  0  0  0  0  0  0
   21.3398   -8.3266    8.7114 C   0  0  0  0  0  0  0  0  0  0  0  0
   22.6595   -8.2263    8.8715 C   0  0  0  0  0  0  0  0  0  0  0  0
   23.0621   -9.4056    9.4829 C   0  0  0  0  0  0  0  0  0  0  0  0
   24.3602   -9.5994    9.7839 N   0  0  0  0  0  0  0  0  0  0  0  0
   25.2565   -8.6639    9.4900 C   0  0  0  0  0  0  0  0  0  0  0  0
   24.9090   -7.5173    8.9021 N   0  0  0  0  0  0  0  0  0  0  0  0
   23.6263   -7.2589    8.5808 C   0  0  0  0  0  0  0  0  0  0  0  0
   23.2996   -6.1045    8.0062 N   0  0  0  0  0  0  0  0  0  0  0  0
  1  2  1  0
  2  3  1  0
  3  4  1  0
  4  5  1  0
  5  6  1  0
  1  6  1  0
  6  7  1  0
  7  8  1  0
  8  9  1  0
  9 10  2  0
 10 11  1  0
  8 12  1  0
 11 12  2  0
 12 13  1  0
 13 14  2  0
 14 15  1  0
 11 16  1  0
 15 16  2  0
 16 17  1  0
M  END
$$$$
