3EL7_PD3_A_601_
     RDKit          3D

 36 40  0  0  0  0  0  0  0  0999 V2000
   22.6960   -8.9030    9.7520 C   0  0  0  0  0  0  0  0  0  0  0  0
   22.6130   -7.7310    9.0170 C   0  0  0  0  0  0  0  0  0  0  0  0
   23.7800   -7.1830    8.5050 C   0  0  0  0  0  0  0  0  0  0  0  0
   24.9450   -7.8060    8.7410 N   0  0  0  0  0  0  0  0  0  0  0  0
   23.8910   -9.4750    9.9530 N   0  0  0  0  0  0  0  0  0  0  0  0
   21.1820  -10.0410   12.4380 C   0  0  0  0  0  0  0  0  0  0  0  0
   21.8820  -11.2720   13.0210 C   0  0  0  0  0  0  0  0  0  0  0  0
   21.6280  -12.3470   11.9630 C   0  0  0  0  0  0  0  0  0  0  0  0
   21.9840  -11.5420   10.7140 C   0  0  0  0  0  0  0  0  0  0  0  0
   21.0690  -10.3370   10.9390 C   0  0  0  0  0  0  0  0  0  0  0  0
   21.4460   -9.1770   10.1190 N   0  0  0  0  0  0  0  0  0  0  0  0
   20.6420   -8.3410    9.7030 N   0  0  0  0  0  0  0  0  0  0  0  0
   24.9830   -8.9210    9.4500 C   0  0  0  0  0  0  0  0  0  0  0  0
   23.7430   -6.0530    7.8040 N   0  0  0  0  0  0  0  0  0  0  0  0
   21.2650   -7.3910    9.0070 C   0  0  0  0  0  0  0  0  0  0  0  0
   20.6350   -6.1460    8.3790 C   0  0  0  0  0  0  0  0  0  0  0  0
   19.4340   -6.5250    7.5090 C   0  0  0  0  0  0  0  0  0  0  0  0
   18.2840   -5.7420    7.5010 C   0  0  0  0  0  0  0  0  0  0  0  0
   19.5090   -7.6680    6.7230 C   0  0  0  0  0  0  0  0  0  0  0  0
   18.4320   -8.0360    5.9250 C   0  0  0  0  0  0  0  0  0  0  0  0
   17.2830   -7.2540    5.9230 C   0  0  0  0  0  0  0  0  0  0  0  0
   17.2030   -6.1110    6.7080 C   0  0  0  0  0  0  0  0  0  0  0  0
   16.0700   -5.4150    6.6320 N   0  0  0  0  0  0  0  0  0  0  0  0
   15.7620   -4.2740    7.2430 C   0  0  0  0  0  0  0  0  0  0  0  0
   16.5390   -3.6750    7.9830 O   0  0  0  0  0  0  0  0  0  0  0  0
   14.5280   -3.8560    6.9740 N   0  0  0  0  0  0  0  0  0  0  0  0
   13.9180   -2.7510    7.4010 C   0  0  0  0  0  0  0  0  0  0  0  0
   14.5650   -1.7560    8.1250 C   0  0  0  0  0  0  0  0  0  0  0  0
   12.6030   -2.5630    6.9970 C   0  0  0  0  0  0  0  0  0  0  0  0
   11.9230   -1.3920    7.3080 C   0  0  0  0  0  0  0  0  0  0  0  0
   12.5730   -0.3970    8.0290 C   0  0  0  0  0  0  0  0  0  0  0  0
   13.8890   -0.5800    8.4300 C   0  0  0  0  0  0  0  0  0  0  0  0
   14.5910    0.5740    9.1510 C   0  0  0  0  0  0  0  0  0  0  0  0
   15.6780    0.1370    9.7750 F   0  0  0  0  0  0  0  0  0  0  0  0
   14.9410    1.4920    8.2590 F   0  0  0  0  0  0  0  0  0  0  0  0
   13.7600    1.1110   10.0360 F   0  0  0  0  0  0  0  0  0  0  0  0
  1  2  1  0
  2  3  2  0
  3  4  1  0
  1  5  2  0
  6  7  1  0
  7  8  1  0
  8  9  1  0
  6 10  1  0
  9 10  1  0
  1 11  1  0
 10 11  1  0
 11 12  1  0
  4 13  2  0
  5 13  1  0
  3 14  1  0
  2 15  1  0
 12 15  2  0
 15 16  1  0
 16 17  1  0
 17 18  2  0
 17 19  1  0
 19 20  2  0
 20 21  1  0
 18 22  1  0
 21 22  2  0
 22 23  1  0
 23 24  1  0
 24 25  2  0
 24 26  1  0
 26 27  1  0
 27 28  2  0
 27 29  1  0
 29 30  2  0
 30 31  1  0
 28 32  1  0
 31 32  2  0
 32 33  1  0
 33 34  1  0
 33 35  1  0
 33 36  1  0
M  END
$$$$
