2ZAS_1OH_A_460_
     RDKit          3D

 16 17  0  0  0  0  0  0  0  0999 V2000
   47.1942  -23.3202  -94.9954 O   0  0  0  0  0  0  0  0  0  0  0  0
   47.4993  -24.6239  -95.2627 C   0  0  0  0  0  0  0  0  0  0  0  0
   48.6323  -25.2164  -94.7049 C   0  0  0  0  0  0  0  0  0  0  0  0
   48.9319  -26.5503  -94.9990 C   0  0  0  0  0  0  0  0  0  0  0  0
   46.6659  -25.3632  -96.1037 C   0  0  0  0  0  0  0  0  0  0  0  0
   46.9604  -26.6891  -96.3859 C   0  0  0  0  0  0  0  0  0  0  0  0
   48.0996  -27.2986  -95.8389 C   0  0  0  0  0  0  0  0  0  0  0  0
   48.4004  -28.7457  -96.1571 C   0  0  0  0  0  0  0  0  0  0  0  0
   47.3536  -29.6322  -95.4918 C   0  0  0  0  0  0  0  0  0  0  0  0
   49.7531  -29.1824  -95.6065 C   0  0  0  0  0  0  0  0  0  0  0  0
   48.3832  -28.9045  -97.6612 C   0  0  0  0  0  0  0  0  0  0  0  0
   47.2132  -29.2743  -98.3370 C   0  0  0  0  0  0  0  0  0  0  0  0
   47.2067  -29.4020  -99.7261 C   0  0  0  0  0  0  0  0  0  0  0  0
   48.3693  -29.1591 -100.4505 C   0  0  0  0  0  0  0  0  0  0  0  0
   49.5354  -28.7854  -99.7848 C   0  0  0  0  0  0  0  0  0  0  0  0
   49.5398  -28.6497  -98.3987 C   0  0  0  0  0  0  0  0  0  0  0  0
  1  2  1  0
  2  3  2  0
  3  4  1  0
  2  5  1  0
  5  6  2  0
  6  7  1  0
  4  7  2  0
  7  8  1  0
  8  9  1  0
  8 10  1  0
  8 11  1  0
 11 12  2  0
 12 13  1  0
 13 14  2  0
 14 15  1  0
 15 16  2  0
 11 16  1  0
M  END
$$$$
