2XIB_DFU_A_1472_
     RDKit          3D

 10 10  0  0  0  0  0  0  0  0999 V2000
  -27.1391    2.7313   27.6619 C   0  0  0  0  0  0  0  0  0  0  0  0
  -26.4477    2.0788   28.8662 C   0  0  0  0  0  0  0  0  0  0  0  0
  -25.0092    1.7338   28.4873 C   0  0  0  0  0  0  0  0  0  0  0  0
  -24.2832    3.0228   28.0969 C   0  0  0  0  0  0  0  0  0  0  0  0
  -25.0334    3.6809   26.9235 C   0  0  0  0  0  0  0  0  0  0  0  0
  -24.3501    4.9937   26.5524 C   0  0  0  0  0  0  0  0  0  0  0  0
  -24.2147    3.9157   29.2371 O   0  0  0  0  0  0  0  0  0  0  0  0
  -24.3383    1.1119   29.5652 O   0  0  0  0  0  0  0  0  0  0  0  0
  -27.1425    0.9100   29.2911 O   0  0  0  0  0  0  0  0  0  0  0  0
  -26.4107    3.9678   27.3049 N   0  0  0  0  0  0  0  0  0  0  0  0
  1  2  1  0
  2  3  1  0
  3  4  1  0
  4  5  1  0
  5  6  1  0
  4  7  1  0
  3  8  1  0
  2  9  1  0
  1 10  1  0
  5 10  1  0
M  END
$$$$
