2V3E_NND_B_1503_
     RDKit          3D

 20 20  0  0  0  0  0  0  0  0999 V2000
   33.9700   37.7030  -18.2410 O   0  0  0  0  0  0  0  0  0  0  0  0
   34.7360   37.2390  -19.3710 C   0  0  0  0  0  0  0  0  0  0  0  0
   33.9290   36.3150  -20.3170 C   0  0  0  0  0  0  0  0  0  0  0  0
   32.7290   37.0450  -20.9310 C   0  0  0  0  0  0  0  0  0  0  0  0
   33.1140   38.3080  -21.5170 O   0  0  0  0  0  0  0  0  0  0  0  0
   30.9650   36.7640  -22.5490 O   0  0  0  0  0  0  0  0  0  0  0  0
   31.6490   34.7980  -21.4040 C   0  0  0  0  0  0  0  0  0  0  0  0
   31.3460   33.9190  -22.4930 O   0  0  0  0  0  0  0  0  0  0  0  0
   33.3700   35.1000  -19.6300 N   0  0  0  0  0  0  0  0  0  0  0  0
   34.2710   34.5480  -18.6320 C   0  0  0  0  0  0  0  0  0  0  0  0
   33.6000   33.3820  -17.9380 C   0  0  0  0  0  0  0  0  0  0  0  0
   32.7530   34.1460  -20.5650 C   0  0  0  0  0  0  0  0  0  0  0  0
   34.2710   33.2850  -16.5850 C   0  0  0  0  0  0  0  0  0  0  0  0
   33.8940   31.9660  -15.9430 C   0  0  0  0  0  0  0  0  0  0  0  0
   34.3180   32.0280  -14.4740 C   0  0  0  0  0  0  0  0  0  0  0  0
   33.4190   31.1160  -13.6420 C   0  0  0  0  0  0  0  0  0  0  0  0
   32.4960   31.8950  -12.7040 C   0  0  0  0  0  0  0  0  0  0  0  0
   30.5260   31.7140  -11.2230 C   0  0  0  0  0  0  0  0  0  0  0  0
   31.6760   30.9570  -11.8350 C   0  0  0  0  0  0  0  0  0  0  0  0
   32.1050   36.1250  -21.9870 C   0  0  0  0  0  0  0  0  0  0  0  0
  1  2  1  0
  2  3  1  0
  3  4  1  0
  4  5  1  0
  7  8  1  0
  3  9  1  0
  9 10  1  0
 10 11  1  0
  7 12  1  0
  9 12  1  0
 11 13  1  0
 13 14  1  0
 14 15  1  0
 15 16  1  0
 16 17  1  0
 17 19  1  0
 18 19  1  0
  4 20  1  0
  6 20  1  0
  7 20  1  0
M  END
$$$$
