2V3D_NBV_A_1503_
     RDKit          3D

 15 15  0  0  0  0  0  0  0  0999 V2000
   33.8552   37.6234  -18.1801 O   0  0  0  0  0  0  0  0  0  0  0  0
   34.6573   37.1962  -19.3193 C   0  0  0  0  0  0  0  0  0  0  0  0
   33.8460   36.2686  -20.2805 C   0  0  0  0  0  0  0  0  0  0  0  0
   32.6750   37.0031  -20.9425 C   0  0  0  0  0  0  0  0  0  0  0  0
   33.0873   38.2732  -21.5325 O   0  0  0  0  0  0  0  0  0  0  0  0
   31.9698   36.1136  -21.9834 C   0  0  0  0  0  0  0  0  0  0  0  0
   30.7574   36.7204  -22.4417 O   0  0  0  0  0  0  0  0  0  0  0  0
   31.5852   34.7420  -21.3981 C   0  0  0  0  0  0  0  0  0  0  0  0
   31.3570   33.8726  -22.5100 O   0  0  0  0  0  0  0  0  0  0  0  0
   33.2719   35.1229  -19.5659 N   0  0  0  0  0  0  0  0  0  0  0  0
   32.6765   34.1476  -20.5144 C   0  0  0  0  0  0  0  0  0  0  0  0
   34.2284   34.5767  -18.5820 C   0  0  0  0  0  0  0  0  0  0  0  0
   33.6801   33.3238  -17.8796 C   0  0  0  0  0  0  0  0  0  0  0  0
   34.3465   33.1776  -16.4824 C   0  0  0  0  0  0  0  0  0  0  0  0
   33.8921   31.8975  -15.7408 C   0  0  0  0  0  0  0  0  0  0  0  0
  1  2  1  0
  2  3  1  0
  3  4  1  0
  4  5  1  0
  4  6  1  0
  6  7  1  0
  6  8  1  0
  8  9  1  0
  3 10  1  0
  8 11  1  0
 10 11  1  0
 10 12  1  0
 12 13  1  0
 13 14  1  0
 14 15  1  0
M  END
$$$$
