1Q4W_DQU_A_900_
     RDKit          3D

 13 14  0  0  0  0  0  0  0  0999 V2000
   18.6160   17.4747   19.4291 C   0  0  0  0  0  0  0  0  0  0  0  0
   19.6747   17.7297   18.4092 N   0  0  0  0  0  0  0  0  0  0  0  0
   17.3345   16.9964   19.0206 C   0  0  0  0  0  0  0  0  0  0  0  0
   16.3198   16.7491   19.9731 C   0  0  0  0  0  0  0  0  0  0  0  0
   16.5621   16.9728   21.3677 C   0  0  0  0  0  0  0  0  0  0  0  0
   15.5428   16.7238   22.2892 N   0  0  0  0  0  0  0  0  0  0  0  0
   15.7385   16.9227   23.5729 C   0  0  0  0  0  0  0  0  0  0  0  0
   14.7517   16.6863   24.5279 N   0  0  0  0  0  0  0  0  0  0  0  0
   16.9976   17.4049   24.0931 N   0  0  0  0  0  0  0  0  0  0  0  0
   18.1045   17.6874   23.2091 C   0  0  0  0  0  0  0  0  0  0  0  0
   19.1659   18.0992   23.6930 O   0  0  0  0  0  0  0  0  0  0  0  0
   17.8616   17.4601   21.7775 C   0  0  0  0  0  0  0  0  0  0  0  0
   18.8767   17.7026   20.7989 C   0  0  0  0  0  0  0  0  0  0  0  0
  1  2  1  0
  1  3  2  0
  3  4  1  0
  4  5  2  0
  5  6  1  0
  6  7  2  0
  7  8  1  0
  7  9  1  0
  9 10  2  0
 10 11  1  0
  5 12  1  0
 10 12  1  0
  1 13  1  0
 12 13  2  0
M  END
$$$$
