1XUG_BAB_A_246_
     RDKit          3D

 43 46  0  0  0  0  0  0  0  0999 V2000
   -2.9863    8.2091   19.8414 C   0  0  0  0  0  0  0  0  0  0  0  0
   -1.6921    7.9751   19.2662 C   0  0  0  0  0  0  0  0  0  0  0  0
   -1.0024    6.7649   19.4591 C   0  0  0  0  0  0  0  0  0  0  0  0
   -1.6425    5.8312   20.2292 C   0  0  0  0  0  0  0  0  0  0  0  0
   -2.8415    6.0022   20.7850 C   0  0  0  0  0  0  0  0  0  0  0  0
   -3.5596    7.1685   20.6260 C   0  0  0  0  0  0  0  0  0  0  0  0
   -3.6529    9.4200   19.6405 C   0  0  0  0  0  0  0  0  0  0  0  0
   -2.1165    4.0592   21.2987 C   0  0  0  0  0  0  0  0  0  0  0  0
   -1.9082    2.5691   21.8914 C   0  0  0  0  0  0  0  0  0  0  0  0
   -4.9361    9.4953   19.8900 N   0  0  0  0  0  0  0  0  0  0  0  0
   -2.9804   10.4668   19.2179 N   0  0  0  0  0  0  0  0  0  0  0  0
   -1.2335    4.6509   20.5581 N   0  0  0  0  0  0  0  0  0  0  0  0
   -3.1236    4.8987   21.4434 N   0  0  0  0  0  0  0  0  0  0  0  0
    0.0852   -1.9732   18.3840 C   0  0  0  0  0  0  0  0  0  0  0  0
    0.9907   -0.9283   18.0073 C   0  0  0  0  0  0  0  0  0  0  0  0
    0.9331    0.3561   18.5658 C   0  0  0  0  0  0  0  0  0  0  0  0
   -0.0483    0.5668   19.5068 C   0  0  0  0  0  0  0  0  0  0  0  0
   -0.9286   -0.3754   19.9038 C   0  0  0  0  0  0  0  0  0  0  0  0
   -0.9050   -1.6656   19.3734 C   0  0  0  0  0  0  0  0  0  0  0  0
    0.1850   -3.2399   17.7716 C   0  0  0  0  0  0  0  0  0  0  0  0
   -1.3168    1.4410   20.9416 C   0  0  0  0  0  0  0  0  0  0  0  0
   -0.2469   -4.3294   18.3690 N   0  0  0  0  0  0  0  0  0  0  0  0
    0.7163   -3.2882   16.5693 N   0  0  0  0  0  0  0  0  0  0  0  0
   -0.3082    1.6563   20.1534 N   0  0  0  0  0  0  0  0  0  0  0  0
   -1.7138    0.1902   20.8013 N   0  0  0  0  0  0  0  0  0  0  0  0
   -1.2270    8.7371   18.6624 H   0  0  0  0  0  0  0  0  0  0  0  0
   -0.0286    6.5801   19.0322 H   0  0  0  0  0  0  0  0  0  0  0  0
   -4.5272    7.2891   21.0856 H   0  0  0  0  0  0  0  0  0  0  0  0
   -2.8615    2.2159   22.2590 H   0  0  0  0  0  0  0  0  0  0  0  0
   -1.2412    2.6436   22.7367 H   0  0  0  0  0  0  0  0  0  0  0  0
   -1.9863   10.3906   19.0805 H   0  0  0  0  0  0  0  0  0  0  0  0
   -3.4050   11.3419   19.0096 H   0  0  0  0  0  0  0  0  0  0  0  0
   -3.9463    4.7553   21.9668 H   0  0  0  0  0  0  0  0  0  0  0  0
    1.7513   -1.1293   17.2684 H   0  0  0  0  0  0  0  0  0  0  0  0
    1.6234    1.1322   18.2730 H   0  0  0  0  0  0  0  0  0  0  0  0
   -1.6110   -2.4126   19.7003 H   0  0  0  0  0  0  0  0  0  0  0  0
    0.9897   -2.4175   16.1370 H   0  0  0  0  0  0  0  0  0  0  0  0
    0.8052   -4.1311   16.0458 H   0  0  0  0  0  0  0  0  0  0  0  0
   -2.4499   -0.2461   21.2785 H   0  0  0  0  0  0  0  0  0  0  0  0
   -0.6190   -4.2609   19.2994 H   0  0  0  0  0  0  0  0  0  0  0  0
   -0.2049   -5.2493   17.9711 H   0  0  0  0  0  0  0  0  0  0  0  0
   -5.4142    8.6487   20.1694 H   0  0  0  0  0  0  0  0  0  0  0  0
   -5.5005   10.3046   19.7704 H   0  0  0  0  0  0  0  0  0  0  0  0
  1  2  2  0
  2  3  1  0
  3  4  2  0
  4  5  1  0
  1  6  1  0
  5  6  2  0
  1  7  1  0
  8  9  1  0
  7 10  2  0
  7 11  1  0
  4 12  1  0
  8 12  2  0
  5 13  1  0
  8 13  1  0
 14 15  2  0
 15 16  1  0
 16 17  2  0
 17 18  1  0
 14 19  1  0
 18 19  2  0
 14 20  1  0
  9 21  1  0
 20 22  2  0
 20 23  1  0
 17 24  1  0
 21 24  2  0
 18 25  1  0
 21 25  1  0
  2 26  1  0
  3 27  1  0
  6 28  1  0
  9 29  1  0
  9 30  1  0
 11 31  1  0
 11 32  1  0
 13 33  1  0
 15 34  1  0
 16 35  1  0
 19 36  1  0
 23 37  1  0
 23 38  1  0
 25 39  1  0
 22 40  1  0
 22 41  1  0
 10 42  1  0
 10 43  1  0
M  CHG  3  10   1  22   1  24   1
M  END
$$$$
