2VWM_LZI_B_1244_
     RDKit          3D

 39 43  0  0  0  0  0  0  0  0999 V2000
    4.0010    5.4820   -7.7280 O   0  0  0  0  0  0  0  0  0  0  0  0
    4.0760    5.7030   -6.4970 C   0  0  0  0  0  0  0  0  0  0  0  0
    3.8190    4.7460   -5.4530 C   0  0  0  0  0  0  0  0  0  0  0  0
    3.9300    5.1200   -4.1510 C   0  0  0  0  0  0  0  0  0  0  0  0
    4.3070    6.4500   -3.8020 C   0  0  0  0  0  0  0  0  0  0  0  0
    4.5570    7.3790   -4.7550 C   0  0  0  0  0  0  0  0  0  0  0  0
    4.4540    7.0170   -6.1130 N   0  0  0  0  0  0  0  0  0  0  0  0
    4.7060    7.9620   -7.1710 C   0  0  0  0  0  0  0  0  0  0  0  0
    5.9620    7.9060   -7.7430 C   0  0  0  0  0  0  0  0  0  0  0  0
    6.1920    8.7980   -8.7680 C   0  0  0  0  0  0  0  0  0  0  0  0
    7.4270    8.7610   -9.3220 F   0  0  0  0  0  0  0  0  0  0  0  0
    3.6970    8.8500   -7.5850 C   0  0  0  0  0  0  0  0  0  0  0  0
    3.9440    9.7440   -8.6320 C   0  0  0  0  0  0  0  0  0  0  0  0
    5.2200    9.7040   -9.2200 C   0  0  0  0  0  0  0  0  0  0  0  0
    5.5300   10.6110  -10.2960 N   0  0  0  0  0  0  0  0  0  0  0  0
    5.9600   10.1050  -11.5450 C   0  0  0  0  0  0  0  0  0  0  0  0
    6.3580    8.9330  -11.6530 O   0  0  0  0  0  0  0  0  0  0  0  0
    5.8960   11.0450  -12.7040 C   0  0  0  0  0  0  0  0  0  0  0  0
    6.4840   12.3950  -12.5030 N   0  0  0  0  0  0  0  0  0  0  0  0
    6.2270   13.4220  -13.5280 C   0  0  0  0  0  0  0  0  0  0  0  0
    6.7680   12.9710  -14.8520 C   0  0  0  0  0  0  0  0  0  0  0  0
    5.9280   13.0290  -15.9520 N   0  0  0  0  0  0  0  0  0  0  0  0
    7.9390   12.5880  -14.9460 O   0  0  0  0  0  0  0  0  0  0  0  0
    7.5240   12.6690  -11.7360 C   0  0  0  0  0  0  0  0  0  0  0  0
    8.1020   14.0340  -12.0860 C   0  0  0  0  0  0  0  0  0  0  0  0
    7.0850   14.5580  -13.0620 C   0  0  0  0  0  0  0  0  0  0  0  0
    8.2360   14.9460  -10.9410 N   0  0  0  0  0  0  0  0  0  0  0  0
    9.2000   14.6730   -9.9980 C   0  0  0  0  0  0  0  0  0  0  0  0
    9.9240   13.6790  -10.1530 O   0  0  0  0  0  0  0  0  0  0  0  0
    9.3410   15.5280   -8.8510 C   0  0  0  0  0  0  0  0  0  0  0  0
    8.6260   16.6600   -8.5150 C   0  0  0  0  0  0  0  0  0  0  0  0
    9.0400   17.1640   -7.2550 C   0  0  0  0  0  0  0  0  0  0  0  0
   10.0190   16.3610   -6.6940 C   0  0  0  0  0  0  0  0  0  0  0  0
   10.5770   15.0910   -7.6900 S   0  0  0  0  0  0  0  0  0  0  0  0
   10.6990   16.4210   -5.0990 Cl  0  0  0  0  0  0  0  0  0  0  0  0
    6.3680   12.6000  -17.2940 C   0  0  0  0  0  0  0  0  0  0  0  0
    5.2520   12.8070  -18.3240 C   0  0  0  0  0  0  0  0  0  0  0  0
    5.5860   12.6670  -19.7820 C   0  0  0  0  0  0  0  0  0  0  0  0
    5.3130   14.0240  -19.2000 C   0  0  0  0  0  0  0  0  0  0  0  0
  1  2  2  0
  2  3  1  0
  3  4  2  0
  4  5  1  0
  5  6  2  0
  2  7  1  0
  6  7  1  0
  7  8  1  0
  8  9  2  0
  9 10  1  0
 10 11  1  0
  8 12  1  0
 12 13  2  0
 10 14  2  0
 13 14  1  0
 14 15  1  0
 15 16  1  0
 16 17  2  0
 16 18  1  0
 18 19  1  0
 19 20  1  0
 20 21  1  0
 21 22  1  0
 21 23  2  0
 19 24  1  0
 24 25  1  0
 20 26  1  0
 25 26  1  0
 25 27  1  0
 27 28  1  0
 28 29  2  0
 28 30  1  0
 30 31  2  0
 31 32  1  0
 32 33  2  0
 30 34  1  0
 33 34  1  0
 33 35  1  0
 22 36  1  0
 36 37  1  0
 37 38  1  0
 37 39  1  0
 38 39  1  0
M  END
$$$$
