2P93_ME1_A_1_
     RDKit          3D

 27 29  0  0  0  0  0  0  0  0999 V2000
   10.2070   15.9179   -6.8934 C   0  0  0  0  0  0  0  0  0  0  0  0
   10.9652   14.8853   -7.3101 C   0  0  0  0  0  0  0  0  0  0  0  0
   10.6052   14.3746   -8.5026 C   0  0  0  0  0  0  0  0  0  0  0  0
    8.0109   13.9690  -12.2502 C   0  0  0  0  0  0  0  0  0  0  0  0
    6.7031   13.1804  -12.2620 C   0  0  0  0  0  0  0  0  0  0  0  0
    6.8664   11.0288  -11.1512 C   0  0  0  0  0  0  0  0  0  0  0  0
    6.2848   10.0975  -10.1678 C   0  0  0  0  0  0  0  0  0  0  0  0
    7.1352    8.9915   -9.7249 C   0  0  0  0  0  0  0  0  0  0  0  0
    6.6297    8.0732   -8.7152 C   0  0  0  0  0  0  0  0  0  0  0  0
    4.9232   10.2808   -9.6439 C   0  0  0  0  0  0  0  0  0  0  0  0
    4.9631    7.5387   -5.8608 C   0  0  0  0  0  0  0  0  0  0  0  0
    4.6827    6.4450   -4.9743 C   0  0  0  0  0  0  0  0  0  0  0  0
    4.1384    4.8822   -6.8390 C   0  0  0  0  0  0  0  0  0  0  0  0
    9.5130   15.0089   -9.0577 C   0  0  0  0  0  0  0  0  0  0  0  0
    8.9524   16.3061   -8.0530 S   0  0  0  0  0  0  0  0  0  0  0  0
    9.1405   14.3678  -10.2622 C   0  0  0  0  0  0  0  0  0  0  0  0
    9.7363   13.3208  -10.5646 O   0  0  0  0  0  0  0  0  0  0  0  0
    8.1753   14.8481  -11.0765 N   0  0  0  0  0  0  0  0  0  0  0  0
    6.3949   12.3003  -11.1261 N   0  0  0  0  0  0  0  0  0  0  0  0
    7.7335   10.6717  -11.9470 O   0  0  0  0  0  0  0  0  0  0  0  0
    5.2803    8.2618   -8.1493 C   0  0  0  0  0  0  0  0  0  0  0  0
    4.4137    9.3630   -8.6256 C   0  0  0  0  0  0  0  0  0  0  0  0
    4.8317    7.2936   -7.2347 N   0  0  0  0  0  0  0  0  0  0  0  0
    4.3077    5.1367   -5.4346 C   0  0  0  0  0  0  0  0  0  0  0  0
    4.3864    6.0156   -7.7779 C   0  0  0  0  0  0  0  0  0  0  0  0
    4.2040    5.8529   -8.9870 O   0  0  0  0  0  0  0  0  0  0  0  0
   10.7415   16.4459   -5.2845 Cl  0  0  0  0  0  0  0  0  0  0  0  0
  1  2  2  0
  2  3  1  0
  4  5  1  0
  6  7  1  0
  7  8  2  0
  8  9  1  0
  7 10  1  0
 11 12  2  0
  3 14  2  0
  1 15  1  0
 14 15  1  0
 14 16  1  0
 16 17  2  0
  4 18  1  0
 16 18  1  0
  5 19  1  0
  6 19  1  0
  6 20  2  0
  9 21  2  0
 10 22  2  0
 21 22  1  0
 11 23  1  0
 21 23  1  0
 12 24  1  0
 13 24  2  0
 13 25  1  0
 23 25  1  0
 25 26  2  0
  1 27  1  0
M  END
$$$$
